# generated using pymatgen
data_LiFe(WO4)2
_symmetry_space_group_name_H-M   'P 1'
_cell_length_a   5.02481731
_cell_length_b   7.45628735
_cell_length_c   7.45628735
_cell_angle_alpha   101.59057533
_cell_angle_beta   90.76659367
_cell_angle_gamma   90.76659374
_symmetry_Int_Tables_number   1
_chemical_formula_structural   LiFe(WO4)2
_chemical_formula_sum   'Li2 Fe2 W4 O16'
_cell_volume   273.60290426
_cell_formula_units_Z   2
loop_
 _symmetry_equiv_pos_site_id
 _symmetry_equiv_pos_as_xyz
  1  'x, y, z'
loop_
 _atom_site_type_symbol
 _atom_site_label
 _atom_site_symmetry_multiplicity
 _atom_site_fract_x
 _atom_site_fract_y
 _atom_site_fract_z
 _atom_site_occupancy
  Li  Li0  1  0.750000  0.160564  0.839436  1
  Li  Li1  1  0.250000  0.839436  0.160564  1
  O  O2  1  0.890901  0.684303  0.070522  1
  O  O3  1  0.609099  0.929478  0.315697  1
  O  O4  1  0.556217  0.195071  0.097079  1
  O  O5  1  0.943783  0.902921  0.804929  1
  O  O6  1  0.109099  0.315697  0.929478  1
  O  O7  1  0.390901  0.070522  0.684303  1
  O  O8  1  0.078408  0.576493  0.696905  1
  O  O9  1  0.421592  0.303095  0.423507  1
  O  O10  1  0.921592  0.423507  0.303095  1
  O  O11  1  0.578408  0.696905  0.576493  1
  O  O12  1  0.587612  0.436656  0.798810  1
  O  O13  1  0.912388  0.201190  0.563344  1
  O  O14  1  0.412388  0.563344  0.201190  1
  O  O15  1  0.087612  0.798810  0.436656  1
  O  O16  1  0.056217  0.097079  0.195071  1
  O  O17  1  0.443783  0.804929  0.902921  1
  Fe  Fe18  1  0.250000  0.327831  0.672169  1
  Fe  Fe19  1  0.750000  0.672169  0.327831  1
  W  W20  1  0.255734  0.837973  0.662732  1
  W  W21  1  0.244266  0.337268  0.162027  1
  W  W22  1  0.744266  0.162027  0.337268  1
  W  W23  1  0.755734  0.662732  0.837973  1
