# generated using pymatgen
data_MnO2
_symmetry_space_group_name_H-M   'P 1'
_cell_length_a   2.92126836
_cell_length_b   7.13696663
_cell_length_c   7.13640639
_cell_angle_alpha   92.10198743
_cell_angle_beta   78.22201426
_cell_angle_gamma   101.87161024
_symmetry_Int_Tables_number   1
_chemical_formula_structural   MnO2
_chemical_formula_sum   'Mn4 O8'
_cell_volume   142.53673700
_cell_formula_units_Z   4
loop_
 _symmetry_equiv_pos_site_id
 _symmetry_equiv_pos_as_xyz
  1  'x, y, z'
loop_
 _atom_site_type_symbol
 _atom_site_label
 _atom_site_symmetry_multiplicity
 _atom_site_fract_x
 _atom_site_fract_y
 _atom_site_fract_z
 _atom_site_occupancy
  Mn  Mn0  1  0.354973  0.514620  0.817877  1
  Mn  Mn1  1  0.656723  0.483440  0.181431  1
  Mn  Mn2  1  0.169079  0.817709  0.481959  1
  Mn  Mn3  1  0.833544  0.180408  0.516584  1
  O  O4  1  0.168038  0.618831  0.293545  1
  O  O5  1  0.841570  0.378511  0.706325  1
  O  O6  1  0.545400  0.703243  0.616740  1
  O  O7  1  0.458639  0.294434  0.381752  1
  O  O8  1  0.852317  0.639932  0.950540  1
  O  O9  1  0.160031  0.358269  0.048874  1
  O  O10  1  0.798308  0.952810  0.357680  1
  O  O11  1  0.203521  0.045318  0.640572  1
