# generated using pymatgen
data_Rb2V(PO4)2
_symmetry_space_group_name_H-M   'P 1'
_cell_length_a   7.19983741
_cell_length_b   9.26772368
_cell_length_c   13.24045784
_cell_angle_alpha   90.00000000
_cell_angle_beta   90.00000000
_cell_angle_gamma   90.00000000
_symmetry_Int_Tables_number   1
_chemical_formula_structural   Rb2V(PO4)2
_chemical_formula_sum   'Rb8 V4 P8 O32'
_cell_volume   883.48416230
_cell_formula_units_Z   4
loop_
 _symmetry_equiv_pos_site_id
 _symmetry_equiv_pos_as_xyz
  1  'x, y, z'
loop_
 _atom_site_type_symbol
 _atom_site_label
 _atom_site_symmetry_multiplicity
 _atom_site_fract_x
 _atom_site_fract_y
 _atom_site_fract_z
 _atom_site_occupancy
  O  O0  1  0.527633  0.922160  0.573551  1
  O  O1  1  0.027633  0.577840  0.426449  1
  O  O2  1  0.472367  0.422159  0.926449  1
  O  O3  1  0.972366  0.077841  0.073551  1
  O  O4  1  0.589970  0.920110  0.765100  1
  O  O5  1  0.089970  0.579890  0.234899  1
  O  O6  1  0.410031  0.420111  0.734900  1
  O  O7  1  0.910031  0.079889  0.265100  1
  O  O8  1  0.299260  0.432483  0.348840  1
  O  O9  1  0.799261  0.067516  0.651160  1
  O  O10  1  0.700740  0.932483  0.151161  1
  O  O11  1  0.200740  0.567517  0.848839  1
  O  O12  1  0.485215  0.151668  0.683830  1
  O  O13  1  0.985215  0.348331  0.316170  1
  O  O14  1  0.514786  0.651669  0.816169  1
  O  O15  1  0.014785  0.848331  0.183830  1
  O  O16  1  0.556711  0.171257  0.209784  1
  O  O17  1  0.056712  0.328743  0.790216  1
  O  O18  1  0.443288  0.671257  0.290217  1
  O  O19  1  0.943288  0.828743  0.709784  1
  O  O20  1  0.874951  0.560234  0.781762  1
  O  O21  1  0.374951  0.939766  0.218238  1
  O  O22  1  0.125049  0.060234  0.718238  1
  O  O23  1  0.625050  0.439767  0.281762  1
  O  O24  1  0.826625  0.801187  0.918869  1
  O  O25  1  0.326625  0.698813  0.081131  1
  O  O26  1  0.550443  0.557653  0.453861  1
  O  O27  1  0.673374  0.198812  0.418869  1
  O  O28  1  0.949556  0.442347  0.953861  1
  O  O29  1  0.449556  0.057652  0.046139  1
  O  O30  1  0.050444  0.942348  0.546139  1
  O  O31  1  0.173374  0.301188  0.581131  1
  P  P32  1  0.585417  0.007101  0.664794  1
  P  P33  1  0.085418  0.492899  0.335205  1
  P  P34  1  0.414582  0.507101  0.835206  1
  P  P35  1  0.914583  0.992899  0.164794  1
  P  P36  1  0.489281  0.528737  0.347326  1
  P  P37  1  0.010719  0.471262  0.847326  1
  P  P38  1  0.510719  0.028737  0.152674  1
  P  P39  1  0.989281  0.971263  0.652674  1
  V  V40  1  0.745042  0.245747  0.305800  1
  V  V41  1  0.245042  0.254253  0.694200  1
  V  V42  1  0.754957  0.754254  0.805800  1
  V  V43  1  0.254958  0.745746  0.194200  1
  Rb  Rb44  1  0.767949  0.388684  0.589670  1
  Rb  Rb45  1  0.267950  0.111316  0.410329  1
  Rb  Rb46  1  0.232050  0.888684  0.910330  1
  Rb  Rb47  1  0.732051  0.611316  0.089671  1
  Rb  Rb48  1  0.729143  0.170638  0.910901  1
  Rb  Rb49  1  0.229142  0.329363  0.089100  1
  Rb  Rb50  1  0.270858  0.670638  0.589099  1
  Rb  Rb51  1  0.770858  0.829362  0.410900  1
