# generated using pymatgen
data_LiMoO2
_symmetry_space_group_name_H-M   'P 1'
_cell_length_a   5.37948631
_cell_length_b   5.37948631
_cell_length_c   5.37948631
_cell_angle_alpha   33.60726109
_cell_angle_beta   33.60726110
_cell_angle_gamma   33.60726103
_symmetry_Int_Tables_number   1
_chemical_formula_structural   LiMoO2
_chemical_formula_sum   'Li1 Mo1 O2'
_cell_volume   42.48462118
_cell_formula_units_Z   1
loop_
 _symmetry_equiv_pos_site_id
 _symmetry_equiv_pos_as_xyz
  1  'x, y, z'
loop_
 _atom_site_type_symbol
 _atom_site_label
 _atom_site_symmetry_multiplicity
 _atom_site_fract_x
 _atom_site_fract_y
 _atom_site_fract_z
 _atom_site_occupancy
  Li  Li0  1  0.500001  0.500000  0.499999  1
  O  O1  1  0.252141  0.252141  0.252142  1
  O  O2  1  0.747858  0.747859  0.747861  1
  Mo  Mo3  1  0.000000  0.000000  0.000000  1
