# generated using pymatgen
data_MgFe(SiO3)2
_symmetry_space_group_name_H-M   'P 1'
_cell_length_a   5.32001195
_cell_length_b   6.74115354
_cell_length_c   6.74115406
_cell_angle_alpha   86.36909612
_cell_angle_beta   76.77883407
_cell_angle_gamma   76.77883579
_symmetry_Int_Tables_number   1
_chemical_formula_structural   MgFe(SiO3)2
_chemical_formula_sum   'Mg2 Fe2 Si4 O12'
_cell_volume   229.09663132
_cell_formula_units_Z   2
loop_
 _symmetry_equiv_pos_site_id
 _symmetry_equiv_pos_as_xyz
  1  'x, y, z'
loop_
 _atom_site_type_symbol
 _atom_site_label
 _atom_site_symmetry_multiplicity
 _atom_site_fract_x
 _atom_site_fract_y
 _atom_site_fract_z
 _atom_site_occupancy
  Mg  Mg0  1  0.750000  0.245765  0.754235  1
  Mg  Mg1  1  0.250001  0.754235  0.245766  1
  Fe  Fe2  1  0.249999  0.101359  0.898642  1
  Fe  Fe3  1  0.749999  0.898643  0.101358  1
  Si  Si4  1  0.241938  0.211760  0.385714  1
  Si  Si5  1  0.258061  0.614286  0.788240  1
  Si  Si6  1  0.741938  0.385714  0.211760  1
  Si  Si7  1  0.758062  0.788240  0.614286  1
  O  O8  1  0.495067  0.317968  0.382903  1
  O  O9  1  0.004933  0.617096  0.682033  1
  O  O10  1  0.504934  0.682033  0.617097  1
  O  O11  1  0.995066  0.382904  0.317967  1
  O  O12  1  0.127072  0.143921  0.616860  1
  O  O13  1  0.372928  0.383139  0.856078  1
  O  O14  1  0.872928  0.856079  0.383140  1
  O  O15  1  0.627071  0.616860  0.143922  1
  O  O16  1  0.840920  0.214102  0.031360  1
  O  O17  1  0.659080  0.968640  0.785897  1
  O  O18  1  0.340919  0.031360  0.214103  1
  O  O19  1  0.159081  0.785898  0.968640  1
