# generated using pymatgen
data_Nb2(PO4)3
_symmetry_space_group_name_H-M   'P 1'
_cell_length_a   9.09960157
_cell_length_b   9.09960157
_cell_length_c   9.09960158
_cell_angle_alpha   58.43876354
_cell_angle_beta   58.43876354
_cell_angle_gamma   58.43876349
_symmetry_Int_Tables_number   1
_chemical_formula_structural   Nb2(PO4)3
_chemical_formula_sum   'Nb4 P6 O24'
_cell_volume   513.75042942
_cell_formula_units_Z   2
loop_
 _symmetry_equiv_pos_site_id
 _symmetry_equiv_pos_as_xyz
  1  'x, y, z'
loop_
 _atom_site_type_symbol
 _atom_site_label
 _atom_site_symmetry_multiplicity
 _atom_site_fract_x
 _atom_site_fract_y
 _atom_site_fract_z
 _atom_site_occupancy
  O  O0  1  0.794557  0.420234  0.561966  1
  O  O1  1  0.420235  0.561966  0.794557  1
  O  O2  1  0.561966  0.794557  0.420235  1
  O  O3  1  0.938034  0.079766  0.705442  1
  O  O4  1  0.079766  0.705442  0.938033  1
  O  O5  1  0.705442  0.938034  0.079766  1
  O  O6  1  0.205442  0.579765  0.438034  1
  O  O7  1  0.579765  0.438034  0.205443  1
  O  O8  1  0.438034  0.205442  0.579766  1
  O  O9  1  0.061966  0.920235  0.294557  1
  O  O10  1  0.364433  0.994257  0.225529  1
  O  O11  1  0.225529  0.364433  0.994258  1
  O  O12  1  0.994258  0.225530  0.364433  1
  O  O13  1  0.505744  0.135567  0.274471  1
  O  O14  1  0.274471  0.505743  0.135566  1
  O  O15  1  0.135568  0.274470  0.505743  1
  O  O16  1  0.635567  0.005744  0.774471  1
  O  O17  1  0.920234  0.294557  0.061966  1
  O  O18  1  0.005743  0.774470  0.635568  1
  O  O19  1  0.494257  0.864433  0.725530  1
  O  O20  1  0.725530  0.494257  0.864433  1
  O  O21  1  0.864433  0.725530  0.494257  1
  O  O22  1  0.294557  0.061966  0.920234  1
  O  O23  1  0.774471  0.635567  0.005743  1
  P  P24  1  0.033481  0.750000  0.466519  1
  P  P25  1  0.750000  0.466519  0.033481  1
  P  P26  1  0.466520  0.033480  0.750000  1
  P  P27  1  0.966519  0.250000  0.533481  1
  P  P28  1  0.250000  0.533480  0.966519  1
  P  P29  1  0.533481  0.966519  0.250000  1
  Nb  Nb30  1  0.642510  0.642510  0.642510  1
  Nb  Nb31  1  0.857491  0.857491  0.857490  1
  Nb  Nb32  1  0.357491  0.357490  0.357491  1
  Nb  Nb33  1  0.142510  0.142509  0.142510  1
