# generated using pymatgen
data_LiLa2MoO6
_symmetry_space_group_name_H-M   'P 1'
_cell_length_a   5.63938765
_cell_length_b   5.78630561
_cell_length_c   8.03266889
_cell_angle_alpha   90.00000000
_cell_angle_beta   90.94807055
_cell_angle_gamma   90.00000000
_symmetry_Int_Tables_number   1
_chemical_formula_structural   LiLa2MoO6
_chemical_formula_sum   'Li2 La4 Mo2 O12'
_cell_volume   262.07990561
_cell_formula_units_Z   2
loop_
 _symmetry_equiv_pos_site_id
 _symmetry_equiv_pos_as_xyz
  1  'x, y, z'
loop_
 _atom_site_type_symbol
 _atom_site_label
 _atom_site_symmetry_multiplicity
 _atom_site_fract_x
 _atom_site_fract_y
 _atom_site_fract_z
 _atom_site_occupancy
  Li  Li0  1  0.000000  0.000000  0.000000  1
  Li  Li1  1  0.499999  0.500000  0.500000  1
  O  O2  1  0.294148  0.187890  0.451525  1
  O  O3  1  0.180930  0.720555  0.446581  1
  O  O4  1  0.319070  0.220555  0.053419  1
  O  O5  1  0.819071  0.279446  0.553419  1
  O  O6  1  0.680929  0.779446  0.946581  1
  O  O7  1  0.401989  0.469526  0.756514  1
  O  O8  1  0.705851  0.812110  0.548474  1
  O  O9  1  0.794149  0.312109  0.951525  1
  O  O10  1  0.098012  0.969528  0.743486  1
  O  O11  1  0.598012  0.530473  0.243486  1
  O  O12  1  0.901989  0.030473  0.256514  1
  O  O13  1  0.205852  0.687890  0.048475  1
  Mo  Mo14  1  0.500000  0.500000  1.000000  1
  Mo  Mo15  1  1.000000  0.000000  0.500000  1
  La  La16  1  0.009987  0.441254  0.244918  1
  La  La17  1  0.490014  0.941255  0.255082  1
  La  La18  1  0.990013  0.558745  0.755081  1
  La  La19  1  0.509987  0.058745  0.744918  1
