# generated using pymatgen
data_SrVPO6
_symmetry_space_group_name_H-M   'P 1'
_cell_length_a   5.59532056
_cell_length_b   8.59943656
_cell_length_c   9.90076022
_cell_angle_alpha   90.00000000
_cell_angle_beta   90.00000000
_cell_angle_gamma   91.45528636
_symmetry_Int_Tables_number   1
_chemical_formula_structural   SrVPO6
_chemical_formula_sum   'Sr4 V4 P4 O24'
_cell_volume   476.23730024
_cell_formula_units_Z   4
loop_
 _symmetry_equiv_pos_site_id
 _symmetry_equiv_pos_as_xyz
  1  'x, y, z'
loop_
 _atom_site_type_symbol
 _atom_site_label
 _atom_site_symmetry_multiplicity
 _atom_site_fract_x
 _atom_site_fract_y
 _atom_site_fract_z
 _atom_site_occupancy
  O  O0  1  0.121543  0.385908  0.923069  1
  O  O1  1  0.878457  0.114093  0.423070  1
  O  O2  1  0.878457  0.614093  0.076930  1
  O  O3  1  0.121543  0.885908  0.576930  1
  O  O4  1  0.316925  0.967469  0.076386  1
  O  O5  1  0.683075  0.532531  0.576386  1
  O  O6  1  0.683075  0.032530  0.923613  1
  O  O7  1  0.316925  0.467469  0.423614  1
  O  O8  1  0.914525  0.171738  0.136271  1
  O  O9  1  0.085474  0.328261  0.636271  1
  O  O10  1  0.085475  0.828261  0.863729  1
  O  O11  1  0.914526  0.671738  0.363729  1
  O  O12  1  0.746846  0.380571  0.339918  1
  O  O13  1  0.253154  0.119430  0.839918  1
  O  O14  1  0.253154  0.619430  0.660083  1
  O  O15  1  0.746846  0.880570  0.160083  1
  O  O16  1  0.472960  0.771076  0.469129  1
  O  O17  1  0.527040  0.728924  0.969128  1
  O  O18  1  0.494360  0.140340  0.283844  1
  O  O19  1  0.472960  0.271076  0.030871  1
  O  O20  1  0.494360  0.640340  0.216156  1
  O  O21  1  0.505640  0.859660  0.716157  1
  O  O22  1  0.505640  0.359660  0.783844  1
  O  O23  1  0.527040  0.228925  0.530871  1
  P  P24  1  0.335137  0.285531  0.892619  1
  P  P25  1  0.664863  0.214470  0.392619  1
  P  P26  1  0.664863  0.714469  0.107381  1
  P  P27  1  0.335137  0.785531  0.607381  1
  V  V28  1  0.655692  0.087911  0.090912  1
  V  V29  1  0.344308  0.412090  0.590912  1
  V  V30  1  0.655692  0.587911  0.409088  1
  V  V31  1  0.344308  0.912089  0.909088  1
  Sr  Sr32  1  0.141294  0.426764  0.187075  1
  Sr  Sr33  1  0.858706  0.073235  0.687074  1
  Sr  Sr34  1  0.858706  0.573235  0.812925  1
  Sr  Sr35  1  0.141294  0.926764  0.312925  1
