# generated using pymatgen
data_Ti(Si2O5)2
_symmetry_space_group_name_H-M   'P 1'
_cell_length_a   7.43339818
_cell_length_b   7.43339818
_cell_length_c   14.95549751
_cell_angle_alpha   90.00000000
_cell_angle_beta   90.00000000
_cell_angle_gamma   90.00000000
_symmetry_Int_Tables_number   1
_chemical_formula_structural   Ti(Si2O5)2
_chemical_formula_sum   'Ti4 Si16 O40'
_cell_volume   826.37212427
_cell_formula_units_Z   4
loop_
 _symmetry_equiv_pos_site_id
 _symmetry_equiv_pos_as_xyz
  1  'x, y, z'
loop_
 _atom_site_type_symbol
 _atom_site_label
 _atom_site_symmetry_multiplicity
 _atom_site_fract_x
 _atom_site_fract_y
 _atom_site_fract_z
 _atom_site_occupancy
  Ti  Ti0  1  0.250000  0.250000  0.552769  1
  Ti  Ti1  1  0.750000  0.750000  0.947231  1
  Ti  Ti2  1  0.750000  0.750000  0.447231  1
  Ti  Ti3  1  0.250000  0.250000  0.052769  1
  Si  Si4  1  0.932466  0.511563  0.645096  1
  Si  Si5  1  0.567534  0.988437  0.645096  1
  Si  Si6  1  0.011563  0.432466  0.854904  1
  Si  Si7  1  0.511563  0.567534  0.645096  1
  Si  Si8  1  0.988437  0.932466  0.645096  1
  Si  Si9  1  0.067534  0.011563  0.854904  1
  Si  Si10  1  0.432466  0.488437  0.854904  1
  Si  Si11  1  0.488437  0.067534  0.854904  1
  Si  Si12  1  0.067534  0.488437  0.354904  1
  Si  Si13  1  0.432466  0.011563  0.354904  1
  Si  Si14  1  0.988437  0.567534  0.145096  1
  Si  Si15  1  0.488437  0.432466  0.354904  1
  Si  Si16  1  0.011563  0.067534  0.354904  1
  Si  Si17  1  0.932466  0.988437  0.145096  1
  Si  Si18  1  0.567534  0.511563  0.145096  1
  Si  Si19  1  0.511563  0.932466  0.145096  1
  O  O20  1  0.036480  0.366826  0.583621  1
  O  O21  1  0.463520  0.133174  0.583621  1
  O  O22  1  0.866826  0.536480  0.916379  1
  O  O23  1  0.366826  0.463520  0.583621  1
  O  O24  1  0.133174  0.036480  0.583621  1
  O  O25  1  0.963520  0.866826  0.916379  1
  O  O26  1  0.536480  0.633174  0.916379  1
  O  O27  1  0.633174  0.963520  0.916379  1
  O  O28  1  0.963520  0.633174  0.416379  1
  O  O29  1  0.536480  0.866826  0.416379  1
  O  O30  1  0.133174  0.463520  0.083621  1
  O  O31  1  0.633174  0.536480  0.416379  1
  O  O32  1  0.866826  0.963520  0.416379  1
  O  O33  1  0.036480  0.133174  0.083621  1
  O  O34  1  0.463520  0.366826  0.083621  1
  O  O35  1  0.003705  0.282601  0.378158  1
  O  O36  1  0.366826  0.036480  0.083621  1
  O  O37  1  0.503705  0.782601  0.621842  1
  O  O38  1  0.217399  0.496295  0.878158  1
  O  O39  1  0.717399  0.503705  0.621842  1
  O  O40  1  0.782601  0.996295  0.621842  1
  O  O41  1  0.003705  0.217399  0.878158  1
  O  O42  1  0.496295  0.282601  0.878158  1
  O  O43  1  0.282601  0.003705  0.878158  1
  O  O44  1  0.466969  0.966968  0.250000  1
  O  O45  1  0.533031  0.466969  0.250000  1
  O  O46  1  0.966968  0.033031  0.250000  1
  O  O47  1  0.033031  0.533031  0.250000  1
  O  O48  1  0.533031  0.033031  0.750000  1
  O  O49  1  0.466969  0.533031  0.750000  1
  O  O50  1  0.033031  0.966968  0.750000  1
  O  O51  1  0.966968  0.466969  0.750000  1
  O  O52  1  0.717399  0.996295  0.121842  1
  O  O53  1  0.503705  0.717399  0.121842  1
  O  O54  1  0.996295  0.782601  0.121842  1
  O  O55  1  0.217399  0.003705  0.378158  1
  O  O56  1  0.282601  0.496295  0.378158  1
  O  O57  1  0.782601  0.503705  0.121842  1
  O  O58  1  0.496295  0.217399  0.378158  1
  O  O59  1  0.996295  0.717399  0.621842  1
