# generated using pymatgen
data_Mn(SiO3)2
_symmetry_space_group_name_H-M   'P 1'
_cell_length_a   5.33091585
_cell_length_b   6.39253023
_cell_length_c   6.39252970
_cell_angle_alpha   84.03568502
_cell_angle_beta   75.11029302
_cell_angle_gamma   75.11029134
_symmetry_Int_Tables_number   1
_chemical_formula_structural   Mn(SiO3)2
_chemical_formula_sum   'Mn2 Si4 O12'
_cell_volume   203.29359993
_cell_formula_units_Z   2
loop_
 _symmetry_equiv_pos_site_id
 _symmetry_equiv_pos_as_xyz
  1  'x, y, z'
loop_
 _atom_site_type_symbol
 _atom_site_label
 _atom_site_symmetry_multiplicity
 _atom_site_fract_x
 _atom_site_fract_y
 _atom_site_fract_z
 _atom_site_occupancy
  Mn  Mn0  1  0.249995  0.092965  0.907035  1
  Mn  Mn1  1  0.749995  0.907036  0.092964  1
  Si  Si2  1  0.251763  0.212744  0.391618  1
  Si  Si3  1  0.248246  0.608381  0.787253  1
  Si  Si4  1  0.751763  0.391618  0.212744  1
  Si  Si5  1  0.748247  0.787253  0.608381  1
  O  O6  1  0.465390  0.360759  0.358468  1
  O  O7  1  0.034629  0.641551  0.639227  1
  O  O8  1  0.534630  0.639227  0.641552  1
  O  O9  1  0.965389  0.358469  0.360758  1
  O  O10  1  0.211616  0.089673  0.628533  1
  O  O11  1  0.288373  0.371469  0.910327  1
  O  O12  1  0.788373  0.910328  0.371470  1
  O  O13  1  0.711615  0.628533  0.089674  1
  O  O14  1  0.863906  0.191520  0.034772  1
  O  O15  1  0.636080  0.965216  0.808487  1
  O  O16  1  0.363905  0.034772  0.191521  1
  O  O17  1  0.136081  0.808488  0.965216  1
