# generated using pymatgen
data_Si4WO10
_symmetry_space_group_name_H-M   'P 1'
_cell_length_a   7.60700554
_cell_length_b   7.60700554
_cell_length_c   16.32572353
_cell_angle_alpha   90.00000000
_cell_angle_beta   90.00000000
_cell_angle_gamma   90.00000000
_symmetry_Int_Tables_number   1
_chemical_formula_structural   Si4WO10
_chemical_formula_sum   'Si16 W4 O40'
_cell_volume   944.71302406
_cell_formula_units_Z   4
loop_
 _symmetry_equiv_pos_site_id
 _symmetry_equiv_pos_as_xyz
  1  'x, y, z'
loop_
 _atom_site_type_symbol
 _atom_site_label
 _atom_site_symmetry_multiplicity
 _atom_site_fract_x
 _atom_site_fract_y
 _atom_site_fract_z
 _atom_site_occupancy
  Si  Si0  1  0.925454  0.516348  0.655104  1
  Si  Si1  1  0.574546  0.983652  0.655104  1
  Si  Si2  1  0.016348  0.425454  0.844896  1
  Si  Si3  1  0.516348  0.574546  0.655104  1
  Si  Si4  1  0.983652  0.925454  0.655104  1
  Si  Si5  1  0.074546  0.016348  0.844896  1
  Si  Si6  1  0.425454  0.483652  0.844896  1
  Si  Si7  1  0.483652  0.074546  0.844896  1
  Si  Si8  1  0.074546  0.483652  0.344896  1
  Si  Si9  1  0.425454  0.016348  0.344896  1
  Si  Si10  1  0.983652  0.574546  0.155104  1
  Si  Si11  1  0.483652  0.425454  0.344896  1
  Si  Si12  1  0.016348  0.074546  0.344896  1
  Si  Si13  1  0.925454  0.983652  0.155104  1
  Si  Si14  1  0.574546  0.516348  0.155104  1
  Si  Si15  1  0.516348  0.925454  0.155104  1
  W  W16  1  0.250000  0.250000  0.585984  1
  W  W17  1  0.750000  0.750000  0.914016  1
  W  W18  1  0.750000  0.750000  0.414016  1
  W  W19  1  0.250000  0.250000  0.085984  1
  O  O20  1  0.029310  0.380371  0.595837  1
  O  O21  1  0.470690  0.119629  0.595837  1
  O  O22  1  0.880371  0.529310  0.904163  1
  O  O23  1  0.380371  0.470690  0.595837  1
  O  O24  1  0.119629  0.029310  0.595837  1
  O  O25  1  0.970690  0.880371  0.904163  1
  O  O26  1  0.529310  0.619629  0.904163  1
  O  O27  1  0.619629  0.970690  0.904163  1
  O  O28  1  0.970690  0.619629  0.404163  1
  O  O29  1  0.529310  0.880371  0.404163  1
  O  O30  1  0.119629  0.470690  0.095837  1
  O  O31  1  0.619629  0.529310  0.404163  1
  O  O32  1  0.880371  0.970690  0.404163  1
  O  O33  1  0.029310  0.119629  0.095837  1
  O  O34  1  0.470690  0.380371  0.095837  1
  O  O35  1  0.004959  0.284497  0.362773  1
  O  O36  1  0.380371  0.029310  0.095837  1
  O  O37  1  0.504959  0.784497  0.637227  1
  O  O38  1  0.215503  0.495041  0.862773  1
  O  O39  1  0.715503  0.504959  0.637227  1
  O  O40  1  0.784497  0.995041  0.637227  1
  O  O41  1  0.004959  0.215503  0.862773  1
  O  O42  1  0.495041  0.284497  0.862773  1
  O  O43  1  0.284497  0.004959  0.862773  1
  O  O44  1  0.463538  0.963537  0.250000  1
  O  O45  1  0.536462  0.463538  0.250000  1
  O  O46  1  0.963537  0.036462  0.250000  1
  O  O47  1  0.036462  0.536462  0.250000  1
  O  O48  1  0.536462  0.036462  0.750000  1
  O  O49  1  0.463538  0.536462  0.750000  1
  O  O50  1  0.036462  0.963537  0.750000  1
  O  O51  1  0.963537  0.463538  0.750000  1
  O  O52  1  0.715503  0.995041  0.137227  1
  O  O53  1  0.504959  0.715503  0.137227  1
  O  O54  1  0.995041  0.784497  0.137227  1
  O  O55  1  0.215503  0.004959  0.362773  1
  O  O56  1  0.284497  0.495041  0.362773  1
  O  O57  1  0.784497  0.504959  0.137227  1
  O  O58  1  0.495041  0.215503  0.362773  1
  O  O59  1  0.995041  0.715503  0.637227  1
