# generated using pymatgen
data_MgCo(SiO3)2
_symmetry_space_group_name_H-M   'P 1'
_cell_length_a   5.28800286
_cell_length_b   6.68771371
_cell_length_c   6.68771345
_cell_angle_alpha   85.78754708
_cell_angle_beta   76.52105944
_cell_angle_gamma   76.52106840
_symmetry_Int_Tables_number   1
_chemical_formula_structural   MgCo(SiO3)2
_chemical_formula_sum   'Mg2 Co2 Si4 O12'
_cell_volume   223.61339355
_cell_formula_units_Z   2
loop_
 _symmetry_equiv_pos_site_id
 _symmetry_equiv_pos_as_xyz
  1  'x, y, z'
loop_
 _atom_site_type_symbol
 _atom_site_label
 _atom_site_symmetry_multiplicity
 _atom_site_fract_x
 _atom_site_fract_y
 _atom_site_fract_z
 _atom_site_occupancy
  Mg  Mg0  1  0.750000  0.245343  0.754657  1
  Mg  Mg1  1  0.250001  0.754657  0.245344  1
  Co  Co2  1  0.249999  0.100515  0.899486  1
  Co  Co3  1  0.749999  0.899487  0.100514  1
  Si  Si4  1  0.246449  0.209949  0.386179  1
  Si  Si5  1  0.253550  0.613821  0.790051  1
  Si  Si6  1  0.746449  0.386179  0.209949  1
  Si  Si7  1  0.753551  0.790051  0.613821  1
  O  O8  1  0.498321  0.318509  0.384466  1
  O  O9  1  0.001679  0.615533  0.681492  1
  O  O10  1  0.501680  0.681492  0.615534  1
  O  O11  1  0.998320  0.384467  0.318508  1
  O  O12  1  0.129926  0.137582  0.618556  1
  O  O13  1  0.370074  0.381443  0.862417  1
  O  O14  1  0.870074  0.862418  0.381444  1
  O  O15  1  0.629925  0.618556  0.137583  1
  O  O16  1  0.849334  0.212315  0.030047  1
  O  O17  1  0.650666  0.969953  0.787684  1
  O  O18  1  0.349333  0.030047  0.212316  1
  O  O19  1  0.150667  0.787685  0.969953  1
