# generated using pymatgen
data_MgV2O5
_symmetry_space_group_name_H-M   'P 1'
_cell_length_a   3.72480136
_cell_length_b   5.42720402
_cell_length_c   11.21048794
_cell_angle_alpha   90.00000000
_cell_angle_beta   90.00000000
_cell_angle_gamma   110.06952527
_symmetry_Int_Tables_number   1
_chemical_formula_structural   MgV2O5
_chemical_formula_sum   'Mg2 V4 O10'
_cell_volume   212.86165055
_cell_formula_units_Z   2
loop_
 _symmetry_equiv_pos_site_id
 _symmetry_equiv_pos_as_xyz
  1  'x, y, z'
loop_
 _atom_site_type_symbol
 _atom_site_label
 _atom_site_symmetry_multiplicity
 _atom_site_fract_x
 _atom_site_fract_y
 _atom_site_fract_z
 _atom_site_occupancy
  Mg  Mg0  1  0.891417  0.782832  0.750000  1
  Mg  Mg1  1  0.108584  0.217169  0.250000  1
  V  V2  1  0.201033  0.402066  0.597886  1
  V  V3  1  0.798968  0.597935  0.402113  1
  V  V4  1  0.798968  0.597935  0.097887  1
  V  V5  1  0.201033  0.402066  0.902114  1
  O  O6  1  0.696044  0.392088  0.250000  1
  O  O7  1  0.303957  0.607913  0.750000  1
  O  O8  1  0.235570  0.471140  0.077394  1
  O  O9  1  0.764432  0.528861  0.922606  1
  O  O10  1  0.764432  0.528861  0.577394  1
  O  O11  1  0.235570  0.471140  0.422605  1
  O  O12  1  0.041131  0.082262  0.627877  1
  O  O13  1  0.958869  0.917737  0.372123  1
  O  O14  1  0.041131  0.082262  0.872123  1
  O  O15  1  0.958869  0.917737  0.127878  1
