# generated using pymatgen
data_Cr(Si2O5)2
_symmetry_space_group_name_H-M   'P 1'
_cell_length_a   7.52688528
_cell_length_b   7.52688528
_cell_length_c   16.19972210
_cell_angle_alpha   90.00000000
_cell_angle_beta   90.00000000
_cell_angle_gamma   90.00000000
_symmetry_Int_Tables_number   1
_chemical_formula_structural   Cr(Si2O5)2
_chemical_formula_sum   'Cr4 Si16 O40'
_cell_volume   917.77908855
_cell_formula_units_Z   4
loop_
 _symmetry_equiv_pos_site_id
 _symmetry_equiv_pos_as_xyz
  1  'x, y, z'
loop_
 _atom_site_type_symbol
 _atom_site_label
 _atom_site_symmetry_multiplicity
 _atom_site_fract_x
 _atom_site_fract_y
 _atom_site_fract_z
 _atom_site_occupancy
  Cr  Cr0  1  0.250000  0.250000  0.089589  1
  Cr  Cr1  1  0.750000  0.750000  0.410411  1
  Cr  Cr2  1  0.750000  0.750000  0.910411  1
  Cr  Cr3  1  0.250000  0.250000  0.589589  1
  Si  Si4  1  0.933376  0.519267  0.653608  1
  Si  Si5  1  0.566624  0.980733  0.653608  1
  Si  Si6  1  0.019267  0.433376  0.846392  1
  Si  Si7  1  0.519267  0.566624  0.653608  1
  Si  Si8  1  0.980733  0.933376  0.653608  1
  Si  Si9  1  0.066624  0.019267  0.846392  1
  Si  Si10  1  0.433376  0.480733  0.846392  1
  Si  Si11  1  0.480733  0.066624  0.846392  1
  Si  Si12  1  0.066624  0.480733  0.346392  1
  Si  Si13  1  0.433376  0.019267  0.346392  1
  Si  Si14  1  0.980733  0.566624  0.153608  1
  Si  Si15  1  0.480733  0.433376  0.346392  1
  Si  Si16  1  0.019267  0.066624  0.346392  1
  Si  Si17  1  0.933376  0.980733  0.153608  1
  Si  Si18  1  0.566624  0.519267  0.153608  1
  Si  Si19  1  0.519267  0.933376  0.153608  1
  O  O20  1  0.042868  0.380623  0.596524  1
  O  O21  1  0.457132  0.119377  0.596524  1
  O  O22  1  0.880623  0.542868  0.903476  1
  O  O23  1  0.380623  0.457132  0.596524  1
  O  O24  1  0.119377  0.042868  0.596524  1
  O  O25  1  0.957132  0.880623  0.903476  1
  O  O26  1  0.542868  0.619377  0.903476  1
  O  O27  1  0.619377  0.957132  0.903476  1
  O  O28  1  0.957132  0.619377  0.403476  1
  O  O29  1  0.542868  0.880623  0.403476  1
  O  O30  1  0.119377  0.457132  0.096524  1
  O  O31  1  0.619377  0.542868  0.403476  1
  O  O32  1  0.880623  0.957132  0.403476  1
  O  O33  1  0.042868  0.119377  0.096524  1
  O  O34  1  0.457132  0.380623  0.096524  1
  O  O35  1  0.001952  0.278243  0.365144  1
  O  O36  1  0.380623  0.042868  0.096524  1
  O  O37  1  0.501952  0.778243  0.634856  1
  O  O38  1  0.221757  0.498048  0.865144  1
  O  O39  1  0.721757  0.501952  0.634856  1
  O  O40  1  0.778243  0.998048  0.634856  1
  O  O41  1  0.001952  0.221757  0.865144  1
  O  O42  1  0.498048  0.278243  0.865144  1
  O  O43  1  0.278243  0.001952  0.865144  1
  O  O44  1  0.470098  0.970098  0.250000  1
  O  O45  1  0.529902  0.470098  0.250000  1
  O  O46  1  0.970098  0.029902  0.250000  1
  O  O47  1  0.029902  0.529902  0.250000  1
  O  O48  1  0.529902  0.029902  0.750000  1
  O  O49  1  0.470098  0.529902  0.750000  1
  O  O50  1  0.029902  0.970098  0.750000  1
  O  O51  1  0.970098  0.470098  0.750000  1
  O  O52  1  0.721757  0.998048  0.134856  1
  O  O53  1  0.501952  0.721757  0.134856  1
  O  O54  1  0.998048  0.778243  0.134856  1
  O  O55  1  0.221757  0.001952  0.365144  1
  O  O56  1  0.278243  0.498048  0.365144  1
  O  O57  1  0.778243  0.501952  0.134856  1
  O  O58  1  0.498048  0.221757  0.365144  1
  O  O59  1  0.998048  0.721757  0.634856  1
