# generated using pymatgen
data_NbF5
_symmetry_space_group_name_H-M   'P 1'
_cell_length_a   5.35852658
_cell_length_b   8.97122183
_cell_length_c   8.97122183
_cell_angle_alpha   112.51470038
_cell_angle_beta   92.80220330
_cell_angle_gamma   92.80220334
_symmetry_Int_Tables_number   1
_chemical_formula_structural   NbF5
_chemical_formula_sum   'Nb4 F20'
_cell_volume   396.85249028
_cell_formula_units_Z   4
loop_
 _symmetry_equiv_pos_site_id
 _symmetry_equiv_pos_as_xyz
  1  'x, y, z'
loop_
 _atom_site_type_symbol
 _atom_site_label
 _atom_site_symmetry_multiplicity
 _atom_site_fract_x
 _atom_site_fract_y
 _atom_site_fract_z
 _atom_site_occupancy
  F  F0  1  0.123870  0.165599  0.599566  1
  F  F1  1  0.876130  0.400434  0.834401  1
  F  F2  1  0.876130  0.834401  0.400434  1
  F  F3  1  0.123870  0.599566  0.165599  1
  F  F4  1  0.537762  0.865809  0.865809  1
  F  F5  1  0.462238  0.134191  0.134191  1
  F  F6  1  0.909134  0.671395  0.671395  1
  F  F7  1  0.090866  0.328605  0.328605  1
  F  F8  1  0.347549  0.541166  0.729053  1
  F  F9  1  0.652451  0.270947  0.458834  1
  F  F10  1  0.652451  0.458834  0.270947  1
  F  F11  1  0.347549  0.729053  0.541166  1
  F  F12  1  0.120605  0.783672  0.973546  1
  F  F13  1  0.879395  0.026454  0.216328  1
  F  F14  1  0.879395  0.216328  0.026454  1
  F  F15  1  0.120605  0.973546  0.783672  1
  F  F16  1  0.690117  0.716961  0.077896  1
  F  F17  1  0.309883  0.922104  0.283039  1
  F  F18  1  0.309883  0.283039  0.922104  1
  F  F19  1  0.690117  0.077896  0.716961  1
  Nb  Nb20  1  0.749917  0.257250  0.257250  1
  Nb  Nb21  1  0.250083  0.742750  0.742750  1
  Nb  Nb22  1  0.000000  0.199719  0.800281  1
  Nb  Nb23  1  0.000000  0.800281  0.199719  1
