# generated using pymatgen
data_LiCrP2O7
_symmetry_space_group_name_H-M   'P 1'
_cell_length_a   4.86815446
_cell_length_b   7.00447084
_cell_length_c   8.17184966
_cell_angle_alpha   90.00000000
_cell_angle_beta   90.00000000
_cell_angle_gamma   108.56778592
_symmetry_Int_Tables_number   1
_chemical_formula_structural   LiCrP2O7
_chemical_formula_sum   'Li2 Cr2 P4 O14'
_cell_volume   264.14620567
_cell_formula_units_Z   2
loop_
 _symmetry_equiv_pos_site_id
 _symmetry_equiv_pos_as_xyz
  1  'x, y, z'
loop_
 _atom_site_type_symbol
 _atom_site_label
 _atom_site_symmetry_multiplicity
 _atom_site_fract_x
 _atom_site_fract_y
 _atom_site_fract_z
 _atom_site_occupancy
  Li  Li0  1  0.178178  0.175279  0.885150  1
  Li  Li1  1  0.821823  0.824720  0.385150  1
  O  O2  1  0.400362  0.583256  0.815048  1
  O  O3  1  0.594705  0.252613  0.598867  1
  O  O4  1  0.401738  0.108705  0.068204  1
  O  O5  1  0.598263  0.891296  0.568203  1
  O  O6  1  0.599639  0.416743  0.315047  1
  O  O7  1  0.405296  0.747387  0.098866  1
  O  O8  1  0.866248  0.615698  0.555585  1
  O  O9  1  0.133752  0.384302  0.055584  1
  O  O10  1  0.053201  0.354785  0.425724  1
  O  O11  1  0.816879  0.019405  0.210257  1
  O  O12  1  0.249482  0.010477  0.401144  1
  O  O13  1  0.750518  0.989522  0.901144  1
  O  O14  1  0.183121  0.980595  0.710257  1
  O  O15  1  0.946800  0.645216  0.925724  1
  P  P16  1  0.600764  0.978111  0.068156  1
  P  P17  1  0.399237  0.021890  0.568155  1
  P  P18  1  0.213933  0.586447  0.965512  1
  P  P19  1  0.786068  0.413552  0.465511  1
  Cr  Cr20  1  0.784519  0.770934  0.748657  1
  Cr  Cr21  1  0.215482  0.229065  0.248658  1
