# generated using pymatgen
data_LiYMo3O8
_symmetry_space_group_name_H-M   'P 1'
_cell_length_a   5.88169599
_cell_length_b   5.88169600
_cell_length_c   5.23864356
_cell_angle_alpha   90.00000000
_cell_angle_beta   90.00000000
_cell_angle_gamma   120.00000002
_symmetry_Int_Tables_number   1
_chemical_formula_structural   LiYMo3O8
_chemical_formula_sum   'Li1 Y1 Mo3 O8'
_cell_volume   156.94758169
_cell_formula_units_Z   1
loop_
 _symmetry_equiv_pos_site_id
 _symmetry_equiv_pos_as_xyz
  1  'x, y, z'
loop_
 _atom_site_type_symbol
 _atom_site_label
 _atom_site_symmetry_multiplicity
 _atom_site_fract_x
 _atom_site_fract_y
 _atom_site_fract_z
 _atom_site_occupancy
  Li  Li0  1  0.666667  0.333333  0.696274  1
  O  O1  1  0.666667  0.333333  0.057834  1
  O  O2  1  0.670613  0.835306  0.023102  1
  O  O3  1  0.164694  0.329387  0.023102  1
  O  O4  1  0.164694  0.835306  0.023102  1
  O  O5  1  0.000000  0.000000  0.530391  1
  O  O6  1  0.510558  0.489442  0.470389  1
  O  O7  1  0.510558  0.021116  0.470389  1
  O  O8  1  0.978884  0.489442  0.470389  1
  Y  Y9  1  0.333333  0.666667  0.727175  1
  Mo  Mo10  1  0.293563  0.146782  0.253284  1
  Mo  Mo11  1  0.853218  0.706437  0.253284  1
  Mo  Mo12  1  0.853218  0.146782  0.253284  1
