# generated using pymatgen
data_MgTiNiP2O9
_symmetry_space_group_name_H-M   'P 1'
_cell_length_a   6.30816553
_cell_length_b   7.33307843
_cell_length_c   14.22579313
_cell_angle_alpha   90.00000000
_cell_angle_beta   90.00000000
_cell_angle_gamma   90.00000000
_symmetry_Int_Tables_number   1
_chemical_formula_structural   MgTiNiP2O9
_chemical_formula_sum   'Mg4 Ti4 Ni4 P8 O36'
_cell_volume   658.06061629
_cell_formula_units_Z   4
loop_
 _symmetry_equiv_pos_site_id
 _symmetry_equiv_pos_as_xyz
  1  'x, y, z'
loop_
 _atom_site_type_symbol
 _atom_site_label
 _atom_site_symmetry_multiplicity
 _atom_site_fract_x
 _atom_site_fract_y
 _atom_site_fract_z
 _atom_site_occupancy
  Mg  Mg0  1  0.750000  0.888829  0.777946  1
  Mg  Mg1  1  0.750000  0.611171  0.277946  1
  Mg  Mg2  1  0.250000  0.111171  0.222054  1
  Mg  Mg3  1  0.250000  0.388829  0.722054  1
  Ti  Ti4  1  0.750000  0.347287  0.883747  1
  Ti  Ti5  1  0.250000  0.652713  0.116253  1
  Ti  Ti6  1  0.250000  0.847287  0.616253  1
  Ti  Ti7  1  0.750000  0.152713  0.383747  1
  Ni  Ni8  1  0.500000  -0.000000  0.000000  1
  Ni  Ni9  1  0.500000  0.500000  0.500000  1
  Ni  Ni10  1  -0.000000  0.500000  0.500000  1
  Ni  Ni11  1  -0.000000  -0.000000  0.000000  1
  P  P12  1  0.250000  0.355390  0.930250  1
  P  P13  1  0.750000  0.644610  0.069751  1
  P  P14  1  0.750000  0.855390  0.569750  1
  P  P15  1  0.250000  0.144610  0.430250  1
  P  P16  1  0.750000  0.390732  0.695723  1
  P  P17  1  0.250000  0.609268  0.304277  1
  P  P18  1  0.250000  0.890732  0.804277  1
  P  P19  1  0.750000  0.109268  0.195723  1
  O  O20  1  0.038519  0.609448  0.360689  1
  O  O21  1  0.538519  0.390552  0.639311  1
  O  O22  1  0.961481  0.109448  0.139311  1
  O  O23  1  0.461481  0.890552  0.860689  1
  O  O24  1  0.961481  0.390552  0.639311  1
  O  O25  1  0.461481  0.609448  0.360689  1
  O  O26  1  0.038519  0.890552  0.860689  1
  O  O27  1  0.538519  0.109448  0.139311  1
  O  O28  1  0.250000  0.332506  0.476485  1
  O  O29  1  0.750000  0.667494  0.523515  1
  O  O30  1  0.750000  0.832506  0.023515  1
  O  O31  1  0.250000  0.167494  0.976485  1
  O  O32  1  0.750000  0.142850  0.946169  1
  O  O33  1  0.250000  0.857150  0.053831  1
  O  O34  1  0.250000  0.642850  0.553831  1
  O  O35  1  0.750000  0.357150  0.446169  1
  O  O36  1  0.750000  0.212644  0.759330  1
  O  O37  1  0.250000  0.787356  0.240670  1
  O  O38  1  0.250000  0.712644  0.740670  1
  O  O39  1  0.750000  0.287356  0.259330  1
  O  O40  1  0.438466  0.122062  0.360954  1
  O  O41  1  0.938466  0.877938  0.639046  1
  O  O42  1  0.561534  0.622062  0.139046  1
  O  O43  1  0.061534  0.377938  0.860954  1
  O  O44  1  0.561534  0.877938  0.639046  1
  O  O45  1  0.061534  0.122062  0.360954  1
  O  O46  1  0.438466  0.377938  0.860954  1
  O  O47  1  0.938466  0.622062  0.139046  1
  O  O48  1  0.750000  0.949951  0.268696  1
  O  O49  1  0.250000  0.050049  0.731304  1
  O  O50  1  0.250000  0.449952  0.231304  1
  O  O51  1  0.750000  0.550049  0.768696  1
  O  O52  1  0.750000  -0.000140  0.492804  1
  O  O53  1  0.250000  0.000140  0.507196  1
  O  O54  1  0.250000  0.499860  0.007196  1
  O  O55  1  0.750000  0.500140  0.992804  1
