# generated using pymatgen
data_LiV(SiO3)2
_symmetry_space_group_name_H-M   'P 1'
_cell_length_a   5.36713037
_cell_length_b   6.62776410
_cell_length_c   6.62776410
_cell_angle_alpha   84.29367083
_cell_angle_beta   74.55929437
_cell_angle_gamma   74.55929435
_symmetry_Int_Tables_number   1
_chemical_formula_structural   LiV(SiO3)2
_chemical_formula_sum   'Li2 V2 Si4 O12'
_cell_volume   218.94799841
_cell_formula_units_Z   2
loop_
 _symmetry_equiv_pos_site_id
 _symmetry_equiv_pos_as_xyz
  1  'x, y, z'
loop_
 _atom_site_type_symbol
 _atom_site_label
 _atom_site_symmetry_multiplicity
 _atom_site_fract_x
 _atom_site_fract_y
 _atom_site_fract_z
 _atom_site_occupancy
  Li  Li0  1  0.750000  0.252580  0.747420  1
  Li  Li1  1  0.250000  0.747420  0.252580  1
  O  O2  1  0.946462  0.358021  0.354234  1
  O  O3  1  0.446462  0.354234  0.358021  1
  O  O4  1  0.053538  0.641979  0.645766  1
  O  O5  1  0.553538  0.645766  0.641979  1
  O  O6  1  0.147930  0.798590  0.964566  1
  O  O7  1  0.164336  0.116721  0.624963  1
  O  O8  1  0.852070  0.201410  0.035434  1
  O  O9  1  0.647930  0.964566  0.798590  1
  O  O10  1  0.352070  0.035434  0.201410  1
  O  O11  1  0.835664  0.883279  0.375037  1
  O  O12  1  0.664336  0.624963  0.116721  1
  O  O13  1  0.335664  0.375037  0.883279  1
  Si  Si14  1  0.768127  0.789004  0.611313  1
  Si  Si15  1  0.231873  0.210996  0.388687  1
  Si  Si16  1  0.268127  0.611313  0.789004  1
  Si  Si17  1  0.731873  0.388687  0.210996  1
  V  V18  1  0.750000  0.901443  0.098557  1
  V  V19  1  0.250000  0.098557  0.901443  1
