# generated using pymatgen
data_Si3(WO6)2
_symmetry_space_group_name_H-M   'P 1'
_cell_length_a   10.38944196
_cell_length_b   10.38944144
_cell_length_c   10.38944177
_cell_angle_alpha   109.47122322
_cell_angle_beta   109.47122222
_cell_angle_gamma   109.47121730
_symmetry_Int_Tables_number   1
_chemical_formula_structural   Si3(WO6)2
_chemical_formula_sum   'Si12 W8 O48'
_cell_volume   863.28608133
_cell_formula_units_Z   4
loop_
 _symmetry_equiv_pos_site_id
 _symmetry_equiv_pos_as_xyz
  1  'x, y, z'
loop_
 _atom_site_type_symbol
 _atom_site_label
 _atom_site_symmetry_multiplicity
 _atom_site_fract_x
 _atom_site_fract_y
 _atom_site_fract_z
 _atom_site_occupancy
  Si  Si0  1  0.250000  0.125000  0.875000  1
  Si  Si1  1  0.750000  0.875000  0.125000  1
  Si  Si2  1  0.375000  0.250000  0.625000  1
  Si  Si3  1  0.625000  0.375000  0.250000  1
  Si  Si4  1  0.125000  0.750000  0.875000  1
  Si  Si5  1  0.875000  0.125000  0.750000  1
  Si  Si6  1  0.750000  0.375000  0.625000  1
  Si  Si7  1  0.375000  0.625000  0.750000  1
  Si  Si8  1  0.125000  0.875000  0.250000  1
  Si  Si9  1  0.875000  0.250000  0.125000  1
  Si  Si10  1  0.625000  0.750000  0.375000  1
  Si  Si11  1  0.250000  0.625000  0.375000  1
  W  W12  1  0.000000  0.000000  0.000000  1
  W  W13  1  0.000000  0.500000  0.000000  1
  W  W14  1  0.000000  0.000000  0.500000  1
  W  W15  1  0.000000  0.500000  0.500000  1
  W  W16  1  0.500000  0.000000  0.500000  1
  W  W17  1  0.500000  0.500000  0.000000  1
  W  W18  1  0.500000  0.500000  0.500000  1
  W  W19  1  0.500000  0.000000  0.000000  1
  O  O20  1  0.306451  0.498210  0.391145  1
  O  O21  1  0.001790  0.308243  0.892935  1
  O  O22  1  0.108855  0.607065  0.915306  1
  O  O23  1  0.193549  0.584694  0.191757  1
  O  O24  1  0.193549  0.108855  0.001790  1
  O  O25  1  0.584694  0.191757  0.193549  1
  O  O26  1  0.607065  0.191757  0.498210  1
  O  O27  1  0.191757  0.193549  0.584694  1
  O  O28  1  0.892935  0.391145  0.584694  1
  O  O29  1  0.308243  0.915306  0.306451  1
  O  O30  1  0.915306  0.306451  0.308243  1
  O  O31  1  0.001790  0.193549  0.108855  1
  O  O32  1  0.191757  0.498210  0.607065  1
  O  O33  1  0.584694  0.892935  0.391145  1
  O  O34  1  0.108855  0.001790  0.193549  1
  O  O35  1  0.498210  0.607065  0.191757  1
  O  O36  1  0.391145  0.584694  0.892935  1
  O  O37  1  0.892935  0.001790  0.308243  1
  O  O38  1  0.607065  0.915306  0.108855  1
  O  O39  1  0.107065  0.608855  0.415306  1
  O  O40  1  0.915306  0.108855  0.607065  1
  O  O41  1  0.391145  0.306451  0.498210  1
  O  O42  1  0.308243  0.892935  0.001790  1
  O  O43  1  0.306451  0.308243  0.915306  1
  O  O44  1  0.693549  0.501790  0.608855  1
  O  O45  1  0.998210  0.691757  0.107065  1
  O  O46  1  0.891145  0.392935  0.084694  1
  O  O47  1  0.806451  0.415306  0.808243  1
  O  O48  1  0.806451  0.891145  0.998210  1
  O  O49  1  0.415306  0.808243  0.806451  1
  O  O50  1  0.392935  0.808243  0.501790  1
  O  O51  1  0.808243  0.806451  0.415306  1
  O  O52  1  0.693549  0.691757  0.084694  1
  O  O53  1  0.691757  0.107065  0.998210  1
  O  O54  1  0.608855  0.693549  0.501790  1
  O  O55  1  0.501790  0.608855  0.693549  1
  O  O56  1  0.084694  0.891145  0.392935  1
  O  O57  1  0.392935  0.084694  0.891145  1
  O  O58  1  0.107065  0.998210  0.691757  1
  O  O59  1  0.608855  0.415306  0.107065  1
  O  O60  1  0.501790  0.392935  0.808243  1
  O  O61  1  0.891145  0.998210  0.806451  1
  O  O62  1  0.415306  0.107065  0.608855  1
  O  O63  1  0.808243  0.501790  0.392935  1
  O  O64  1  0.998210  0.806451  0.891145  1
  O  O65  1  0.084694  0.693549  0.691757  1
  O  O66  1  0.691757  0.084694  0.693549  1
  O  O67  1  0.498210  0.391145  0.306451  1
