# generated using pymatgen
data_V(PO3)4
_symmetry_space_group_name_H-M   'P 1'
_cell_length_a   8.40757912
_cell_length_b   8.40757911
_cell_length_c   7.80447663
_cell_angle_alpha   82.13693045
_cell_angle_beta   97.86306953
_cell_angle_gamma   70.45339288
_symmetry_Int_Tables_number   1
_chemical_formula_structural   V(PO3)4
_chemical_formula_sum   'V2 P8 O24'
_cell_volume   505.05065483
_cell_formula_units_Z   2
loop_
 _symmetry_equiv_pos_site_id
 _symmetry_equiv_pos_as_xyz
  1  'x, y, z'
loop_
 _atom_site_type_symbol
 _atom_site_label
 _atom_site_symmetry_multiplicity
 _atom_site_fract_x
 _atom_site_fract_y
 _atom_site_fract_z
 _atom_site_occupancy
  O  O0  1  0.128600  0.128599  0.250001  1
  O  O1  1  0.114919  0.346913  0.809525  1
  O  O2  1  0.997998  0.746723  0.496348  1
  O  O3  1  0.149591  0.630205  0.816176  1
  O  O4  1  0.346913  0.114919  0.690475  1
  O  O5  1  0.082401  0.861596  0.172032  1
  O  O6  1  0.138404  0.917599  0.672033  1
  O  O7  1  0.326895  0.382821  0.065933  1
  O  O8  1  0.387575  0.387574  0.750000  1
  O  O9  1  0.382821  0.326896  0.434067  1
  O  O10  1  0.253276  0.002003  0.996348  1
  O  O11  1  0.630204  0.149590  0.683824  1
  O  O12  1  0.369795  0.850409  0.316176  1
  O  O13  1  0.746723  0.997998  0.003651  1
  O  O14  1  0.617179  0.673105  0.565933  1
  O  O15  1  0.612425  0.612425  0.250000  1
  O  O16  1  0.673104  0.617180  0.934066  1
  O  O17  1  0.871400  0.871400  0.750000  1
  O  O18  1  0.917599  0.138403  0.827968  1
  O  O19  1  0.653087  0.885080  0.309524  1
  O  O20  1  0.850409  0.369796  0.183823  1
  O  O21  1  0.002002  0.253277  0.503651  1
  O  O22  1  0.885080  0.653087  0.190475  1
  O  O23  1  0.861596  0.082401  0.327968  1
  P  P24  1  0.042172  0.793606  0.671846  1
  P  P25  1  0.250143  0.424702  0.878827  1
  P  P26  1  0.424702  0.250142  0.621173  1
  P  P27  1  0.206394  0.957828  0.171845  1
  P  P28  1  0.793606  0.042172  0.828154  1
  P  P29  1  0.957828  0.206395  0.328155  1
  P  P30  1  0.749858  0.575297  0.121172  1
  P  P31  1  0.575297  0.749857  0.378827  1
  V  V32  1  0.132520  0.132521  0.750000  1
  V  V33  1  0.867479  0.867480  0.250000  1
