# generated using pymatgen
data_LiFePO4
_symmetry_space_group_name_H-M   'P 1'
_cell_length_a   10.23476576
_cell_length_b   6.83897625
_cell_length_c   5.05467605
_cell_angle_alpha   90.00000000
_cell_angle_beta   90.00000000
_cell_angle_gamma   90.00000000
_symmetry_Int_Tables_number   1
_chemical_formula_structural   LiFePO4
_chemical_formula_sum   'Li4 Fe4 P4 O16'
_cell_volume   353.80366740
_cell_formula_units_Z   4
loop_
 _symmetry_equiv_pos_site_id
 _symmetry_equiv_pos_as_xyz
  1  'x, y, z'
loop_
 _atom_site_type_symbol
 _atom_site_label
 _atom_site_symmetry_multiplicity
 _atom_site_fract_x
 _atom_site_fract_y
 _atom_site_fract_z
 _atom_site_occupancy
  Li  Li0  1  0.152225  0.214941  0.689096  1
  Li  Li1  1  0.652225  0.214941  0.810904  1
  Li  Li2  1  0.847775  0.714941  0.310904  1
  Li  Li3  1  0.347775  0.714941  0.189096  1
  Fe  Fe4  1  0.654216  0.712488  0.812414  1
  Fe  Fe5  1  0.154216  0.712488  0.687586  1
  Fe  Fe6  1  0.345784  0.212488  0.187586  1
  Fe  Fe7  1  0.845784  0.212488  0.312414  1
  P  P8  1  0.405966  0.463293  0.683507  1
  P  P9  1  0.094034  0.963293  0.183507  1
  P  P10  1  0.594034  0.963293  0.316493  1
  P  P11  1  0.905966  0.463293  0.816493  1
  O  O12  1  0.615699  0.968392  0.621599  1
  O  O13  1  0.656887  0.149349  0.193240  1
  O  O14  1  0.843113  0.649349  0.693240  1
  O  O15  1  0.343113  0.649349  0.806760  1
  O  O16  1  0.054110  0.459963  0.743742  1
  O  O17  1  0.115699  0.968392  0.878401  1
  O  O18  1  0.660004  0.773399  0.210045  1
  O  O19  1  0.554110  0.459963  0.756258  1
  O  O20  1  0.384301  0.468392  0.378401  1
  O  O21  1  0.339996  0.273399  0.789955  1
  O  O22  1  0.156887  0.149349  0.306760  1
  O  O23  1  0.945890  0.959963  0.256258  1
  O  O24  1  0.884301  0.468392  0.121599  1
  O  O25  1  0.160004  0.773399  0.289955  1
  O  O26  1  0.445890  0.959963  0.243742  1
  O  O27  1  0.839996  0.273399  0.710045  1
