# generated using pymatgen
data_Li2CrP2O7
_symmetry_space_group_name_H-M   'P 1'
_cell_length_a   7.96021171
_cell_length_b   13.76146262
_cell_length_c   5.13552735
_cell_angle_alpha   90.00000000
_cell_angle_beta   93.25509806
_cell_angle_gamma   90.00000000
_symmetry_Int_Tables_number   1
_chemical_formula_structural   Li2CrP2O7
_chemical_formula_sum   'Li8 Cr4 P8 O28'
_cell_volume   561.65937567
_cell_formula_units_Z   4
loop_
 _symmetry_equiv_pos_site_id
 _symmetry_equiv_pos_as_xyz
  1  'x, y, z'
loop_
 _atom_site_type_symbol
 _atom_site_label
 _atom_site_symmetry_multiplicity
 _atom_site_fract_x
 _atom_site_fract_y
 _atom_site_fract_z
 _atom_site_occupancy
  Li  Li0  1  0.142004  0.901025  0.193238  1
  Li  Li1  1  0.857995  0.098975  0.806762  1
  Li  Li2  1  0.828132  0.696351  0.260473  1
  Li  Li3  1  0.671868  0.196351  0.239527  1
  Li  Li4  1  0.642004  0.598975  0.693238  1
  Li  Li5  1  0.171867  0.303649  0.739526  1
  Li  Li6  1  0.328133  0.803649  0.760474  1
  Li  Li7  1  0.357995  0.401025  0.306763  1
  O  O8  1  0.174856  0.028779  0.417367  1
  O  O9  1  0.874481  0.898707  0.132822  1
  O  O10  1  0.923011  0.441381  0.236832  1
  O  O11  1  0.957292  0.289860  0.513340  1
  O  O12  1  0.042708  0.710141  0.486661  1
  O  O13  1  0.076990  0.558619  0.763168  1
  O  O14  1  0.125520  0.101293  0.867179  1
  O  O15  1  0.163076  0.721891  0.954734  1
  O  O16  1  0.147351  0.316677  0.133671  1
  O  O17  1  0.423010  0.058619  0.736831  1
  O  O18  1  0.219249  0.924974  0.833663  1
  O  O19  1  0.280750  0.424974  0.666337  1
  O  O20  1  0.336924  0.221891  0.545267  1
  O  O21  1  0.852649  0.683323  0.866329  1
  O  O22  1  0.352649  0.816677  0.366330  1
  O  O23  1  0.374480  0.601294  0.632821  1
  O  O24  1  0.836923  0.278109  0.045267  1
  O  O25  1  0.457293  0.210140  0.013340  1
  O  O26  1  0.542708  0.789860  0.986661  1
  O  O27  1  0.576989  0.941381  0.263168  1
  O  O28  1  0.625519  0.398706  0.367180  1
  O  O29  1  0.647350  0.183323  0.633671  1
  O  O30  1  0.674857  0.471221  0.917367  1
  O  O31  1  0.663077  0.778109  0.454733  1
  O  O32  1  0.719250  0.575026  0.333664  1
  O  O33  1  0.780750  0.075026  0.166336  1
  O  O34  1  0.825143  0.971220  0.582633  1
  O  O35  1  0.325143  0.528780  0.082632  1
  P  P36  1  0.470130  0.173239  0.733060  1
  P  P37  1  0.529869  0.826761  0.266941  1
  P  P38  1  0.723141  0.475322  0.212176  1
  P  P39  1  0.776860  0.975322  0.287824  1
  P  P40  1  0.029870  0.673239  0.766941  1
  P  P41  1  0.223141  0.024678  0.712175  1
  P  P42  1  0.276859  0.524679  0.787824  1
  P  P43  1  0.970130  0.326760  0.233059  1
  Cr  Cr44  1  0.763797  0.844562  0.786174  1
  Cr  Cr45  1  0.736202  0.344562  0.713826  1
  Cr  Cr46  1  0.263797  0.655438  0.286174  1
  Cr  Cr47  1  0.236202  0.155439  0.213825  1
