# generated using pymatgen
data_Li3Co(PO4)2
_symmetry_space_group_name_H-M   'P 1'
_cell_length_a   8.26514389
_cell_length_b   10.42417375
_cell_length_c   8.17845517
_cell_angle_alpha   90.00000000
_cell_angle_beta   104.57236065
_cell_angle_gamma   90.00000000
_symmetry_Int_Tables_number   1
_chemical_formula_structural   Li3Co(PO4)2
_chemical_formula_sum   'Li12 Co4 P8 O32'
_cell_volume   681.96598261
_cell_formula_units_Z   4
loop_
 _symmetry_equiv_pos_site_id
 _symmetry_equiv_pos_as_xyz
  1  'x, y, z'
loop_
 _atom_site_type_symbol
 _atom_site_label
 _atom_site_symmetry_multiplicity
 _atom_site_fract_x
 _atom_site_fract_y
 _atom_site_fract_z
 _atom_site_occupancy
  Li  Li0  1  0.100144  0.663289  0.612045  1
  Li  Li1  1  0.908280  0.333012  0.393802  1
  Li  Li2  1  0.844398  0.842183  0.352567  1
  Li  Li3  1  0.785754  0.576809  0.548048  1
  Li  Li4  1  0.714246  0.076808  0.451953  1
  Li  Li5  1  0.166014  0.152860  0.644371  1
  Li  Li6  1  0.156809  0.354636  0.163736  1
  Li  Li7  1  0.343190  0.854636  0.836264  1
  Li  Li8  1  0.333986  0.652861  0.355629  1
  Li  Li9  1  0.399857  0.163289  0.387955  1
  Li  Li10  1  0.591720  0.833011  0.606197  1
  Li  Li11  1  0.655601  0.342183  0.647432  1
  O  O12  1  0.056904  0.165133  0.128631  1
  O  O13  1  0.991844  0.536936  0.726621  1
  O  O14  1  0.917574  0.659310  0.393370  1
  O  O15  1  0.996522  0.944493  0.238423  1
  O  O16  1  0.010697  0.060940  0.764984  1
  O  O17  1  0.071562  0.322237  0.615950  1
  O  O18  1  0.001961  0.454955  0.255391  1
  O  O19  1  0.117073  0.844718  0.690064  1
  O  O20  1  0.196697  0.379969  0.921774  1
  O  O21  1  0.382927  0.344719  0.309936  1
  O  O22  1  0.104706  0.671800  0.188421  1
  O  O23  1  0.195166  0.103258  0.426268  1
  O  O24  1  0.304835  0.603258  0.573733  1
  O  O25  1  0.799463  0.619275  0.083770  1
  O  O26  1  0.443096  0.665133  0.871369  1
  O  O27  1  0.303303  0.879968  0.078227  1
  O  O28  1  0.882100  0.143823  0.345572  1
  O  O29  1  0.498039  0.954955  0.744609  1
  O  O30  1  0.503478  0.444492  0.761578  1
  O  O31  1  0.428438  0.822237  0.384050  1
  O  O32  1  0.489303  0.560940  0.235016  1
  O  O33  1  0.582427  0.159310  0.606631  1
  O  O34  1  0.508156  0.036936  0.273380  1
  O  O35  1  0.617900  0.643823  0.654427  1
  O  O36  1  0.700538  0.119275  0.916231  1
  O  O37  1  0.574208  0.358387  0.111015  1
  O  O38  1  0.611888  0.830908  0.176771  1
  O  O39  1  0.689827  0.406282  0.425449  1
  O  O40  1  0.810172  0.906281  0.574551  1
  O  O41  1  0.888113  0.330907  0.823229  1
  O  O42  1  0.925792  0.858387  0.888985  1
  O  O43  1  0.395294  0.171799  0.811579  1
  P  P44  1  0.543555  0.095938  0.763578  1
  P  P45  1  0.462357  0.897333  0.236865  1
  P  P46  1  0.533030  0.413915  0.275767  1
  P  P47  1  0.966970  0.913915  0.724234  1
  P  P48  1  0.037643  0.397333  0.763135  1
  P  P49  1  0.031894  0.090367  0.291417  1
  P  P50  1  0.468106  0.590367  0.708582  1
  P  P51  1  0.956446  0.595938  0.236422  1
  Co  Co52  1  0.914429  0.161301  0.911819  1
  Co  Co53  1  0.585570  0.661301  0.088181  1
  Co  Co54  1  0.416232  0.338598  0.907277  1
  Co  Co55  1  0.083768  0.838598  0.092723  1
