# generated using pymatgen
data_Fe(WO4)2
_symmetry_space_group_name_H-M   'P 1'
_cell_length_a   7.58175069
_cell_length_b   7.58175068
_cell_length_c   5.06294775
_cell_angle_alpha   88.30690103
_cell_angle_beta   91.69309893
_cell_angle_gamma   77.23729301
_symmetry_Int_Tables_number   1
_chemical_formula_structural   Fe(WO4)2
_chemical_formula_sum   'Fe2 W4 O16'
_cell_volume   283.52446420
_cell_formula_units_Z   2
loop_
 _symmetry_equiv_pos_site_id
 _symmetry_equiv_pos_as_xyz
  1  'x, y, z'
loop_
 _atom_site_type_symbol
 _atom_site_label
 _atom_site_symmetry_multiplicity
 _atom_site_fract_x
 _atom_site_fract_y
 _atom_site_fract_z
 _atom_site_occupancy
  O  O0  1  0.785059  0.557983  0.082647  1
  O  O1  1  0.808945  0.112944  0.472727  1
  O  O2  1  0.191055  0.887056  0.527273  1
  O  O3  1  0.112944  0.808945  0.027273  1
  O  O4  1  0.673486  0.928490  0.874354  1
  O  O5  1  0.071510  0.326514  0.374354  1
  O  O6  1  0.428553  0.700762  0.911991  1
  O  O7  1  0.299238  0.571447  0.411991  1
  O  O8  1  0.214941  0.442017  0.917353  1
  O  O9  1  0.557983  0.785059  0.417353  1
  O  O10  1  0.442017  0.214941  0.582647  1
  O  O11  1  0.326514  0.071510  0.125646  1
  O  O12  1  0.700762  0.428553  0.588009  1
  O  O13  1  0.571447  0.299238  0.088009  1
  O  O14  1  0.928490  0.673486  0.625646  1
  O  O15  1  0.887056  0.191055  0.972727  1
  Fe  Fe16  1  0.674138  0.674138  0.750000  1
  Fe  Fe17  1  0.325862  0.325862  0.250000  1
  W  W18  1  0.160899  0.660420  0.729079  1
  W  W19  1  0.339580  0.839101  0.229079  1
  W  W20  1  0.660420  0.160899  0.770921  1
  W  W21  1  0.839101  0.339580  0.270921  1
