# generated using pymatgen
data_Li2PWCO7
_symmetry_space_group_name_H-M   'P 1'
_cell_length_a   5.01268592
_cell_length_b   6.69062212
_cell_length_c   8.79927109
_cell_angle_alpha   90.00000000
_cell_angle_beta   84.45675079
_cell_angle_gamma   90.00000000
_symmetry_Int_Tables_number   1
_chemical_formula_structural   Li2PWCO7
_chemical_formula_sum   'Li4 P2 W2 C2 O14'
_cell_volume   293.72978086
_cell_formula_units_Z   2
loop_
 _symmetry_equiv_pos_site_id
 _symmetry_equiv_pos_as_xyz
  1  'x, y, z'
loop_
 _atom_site_type_symbol
 _atom_site_label
 _atom_site_symmetry_multiplicity
 _atom_site_fract_x
 _atom_site_fract_y
 _atom_site_fract_z
 _atom_site_occupancy
  Li  Li0  1  0.753751  0.980984  0.776364  1
  Li  Li1  1  0.246249  0.019016  0.223636  1
  Li  Li2  1  0.246249  0.480984  0.223636  1
  Li  Li3  1  0.753751  0.519016  0.776364  1
  C  C4  1  0.712063  0.750000  0.053936  1
  C  C5  1  0.287936  0.250000  0.946064  1
  O  O6  1  0.509206  0.750000  0.164573  1
  O  O7  1  0.949071  0.750000  0.104832  1
  O  O8  1  0.490794  0.250000  0.835427  1
  O  O9  1  0.155835  0.934437  0.681963  1
  O  O10  1  0.155835  0.565563  0.681963  1
  O  O11  1  0.180488  0.750000  0.427413  1
  O  O12  1  0.819512  0.250000  0.572587  1
  O  O13  1  0.844165  0.434437  0.318037  1
  O  O14  1  0.844165  0.065563  0.318037  1
  O  O15  1  0.417816  0.250000  0.422795  1
  O  O16  1  0.674779  0.750000  0.913866  1
  O  O17  1  0.325221  0.250000  0.086134  1
  O  O18  1  0.582184  0.750000  0.577205  1
  O  O19  1  0.050929  0.250000  0.895168  1
  P  P20  1  0.731062  0.250000  0.407804  1
  P  P21  1  0.268938  0.750000  0.592196  1
  W  W22  1  0.790568  0.750000  0.343159  1
  W  W23  1  0.209432  0.250000  0.656841  1
