# generated using pymatgen
data_LiCr(PO3)3
_symmetry_space_group_name_H-M   'P 1'
_cell_length_a   9.80188321
_cell_length_b   9.73189538
_cell_length_c   9.63841158
_cell_angle_alpha   111.46176763
_cell_angle_beta   106.01255098
_cell_angle_gamma   106.92891923
_symmetry_Int_Tables_number   1
_chemical_formula_structural   LiCr(PO3)3
_chemical_formula_sum   'Li4 Cr4 P12 O36'
_cell_volume   739.24408451
_cell_formula_units_Z   4
loop_
 _symmetry_equiv_pos_site_id
 _symmetry_equiv_pos_as_xyz
  1  'x, y, z'
loop_
 _atom_site_type_symbol
 _atom_site_label
 _atom_site_symmetry_multiplicity
 _atom_site_fract_x
 _atom_site_fract_y
 _atom_site_fract_z
 _atom_site_occupancy
  Li  Li0  1  0.496196  0.932259  0.344947  1
  Li  Li1  1  0.503805  0.067742  0.655053  1
  Li  Li2  1  0.682988  0.841480  0.650833  1
  Li  Li3  1  0.317013  0.158520  0.349166  1
  O  O4  1  0.091904  0.137190  0.216622  1
  O  O5  1  0.840896  0.170377  0.100645  1
  O  O6  1  0.913663  0.179309  0.362384  1
  O  O7  1  0.999247  0.729475  0.040684  1
  O  O8  1  0.000753  0.270525  0.959317  1
  O  O9  1  0.086337  0.820691  0.637617  1
  O  O10  1  0.159104  0.829623  0.899355  1
  O  O11  1  0.198268  0.631984  0.987060  1
  O  O12  1  0.046649  0.175615  0.626303  1
  O  O13  1  0.142946  0.701726  0.397644  1
  O  O14  1  0.188631  0.094050  0.895722  1
  O  O15  1  0.322158  0.437672  0.946830  1
  O  O16  1  0.374733  0.648685  0.845250  1
  O  O17  1  0.298899  0.622316  0.572730  1
  O  O18  1  0.295517  0.928108  0.207798  1
  O  O19  1  0.749445  0.988791  0.439792  1
  O  O20  1  0.261438  0.524519  0.274916  1
  O  O21  1  0.444209  0.826300  0.494100  1
  O  O22  1  0.357609  0.395694  0.613719  1
  O  O23  1  0.250554  0.011208  0.560208  1
  O  O24  1  0.581182  0.688294  0.735870  1
  O  O25  1  0.953350  0.824385  0.373697  1
  O  O26  1  0.492396  0.745376  0.151518  1
  O  O27  1  0.418818  0.311707  0.264130  1
  O  O28  1  0.801733  0.368016  0.012941  1
  O  O29  1  0.642391  0.604306  0.386281  1
  O  O30  1  0.555791  0.173700  0.505900  1
  O  O31  1  0.738561  0.475481  0.725084  1
  O  O32  1  0.908097  0.862810  0.783378  1
  O  O33  1  0.704483  0.071892  0.792201  1
  O  O34  1  0.701101  0.377684  0.427269  1
  O  O35  1  0.625266  0.351314  0.154750  1
  O  O36  1  0.677842  0.562328  0.053170  1
  O  O37  1  0.811369  0.905950  0.104277  1
  O  O38  1  0.857055  0.298274  0.602357  1
  O  O39  1  0.507605  0.254624  0.848481  1
  P  P40  1  0.701172  0.329946  0.571176  1
  P  P41  1  0.839281  0.209940  0.951918  1
  P  P42  1  0.645651  0.387565  0.010824  1
  P  P43  1  0.893979  0.149299  0.510388  1
  P  P44  1  0.076980  0.913150  0.809183  1
  P  P45  1  0.106021  0.850701  0.489613  1
  P  P46  1  0.354349  0.612435  0.989177  1
  P  P47  1  0.160719  0.790061  0.048082  1
  P  P48  1  0.298829  0.670054  0.428825  1
  P  P49  1  0.411225  0.576994  0.686625  1
  P  P50  1  0.588775  0.423006  0.313375  1
  P  P51  1  0.923020  0.086850  0.190818  1
  Cr  Cr52  1  0.720010  0.767834  0.260223  1
  Cr  Cr53  1  0.785714  0.702669  0.899093  1
  Cr  Cr54  1  0.214286  0.297331  0.100907  1
  Cr  Cr55  1  0.279990  0.232166  0.739776  1
