# generated using pymatgen
data_Sb2P5O16
_symmetry_space_group_name_H-M   'P 1'
_cell_length_a   7.55649904
_cell_length_b   10.44165620
_cell_length_c   10.71094875
_cell_angle_alpha   90.00000000
_cell_angle_beta   69.19806618
_cell_angle_gamma   90.00000000
_symmetry_Int_Tables_number   1
_chemical_formula_structural   Sb2P5O16
_chemical_formula_sum   'Sb4 P10 O32'
_cell_volume   790.02898778
_cell_formula_units_Z   2
loop_
 _symmetry_equiv_pos_site_id
 _symmetry_equiv_pos_as_xyz
  1  'x, y, z'
loop_
 _atom_site_type_symbol
 _atom_site_label
 _atom_site_symmetry_multiplicity
 _atom_site_fract_x
 _atom_site_fract_y
 _atom_site_fract_z
 _atom_site_occupancy
  O  O0  1  0.208038  0.217796  0.193374  1
  O  O1  1  0.335904  0.476897  0.107453  1
  O  O2  1  0.370727  0.010001  0.085125  1
  O  O3  1  0.232317  0.691953  0.427829  1
  O  O4  1  0.208038  0.782204  0.693374  1
  O  O5  1  0.522347  0.164948  0.204603  1
  O  O6  1  0.335904  0.523103  0.607453  1
  O  O7  1  0.370727  0.989999  0.585125  1
  O  O8  1  0.533343  0.768002  0.239743  1
  O  O9  1  0.232317  0.308047  0.927829  1
  O  O10  1  0.489395  0.334512  0.443248  1
  O  O11  1  0.684045  0.516316  0.031588  1
  O  O12  1  0.542339  0.565913  0.365372  1
  O  O13  1  0.511744  0.776183  0.482893  1
  O  O14  1  0.780298  0.007399  0.074565  1
  O  O15  1  0.522347  0.835052  0.704603  1
  O  O16  1  0.533343  0.231998  0.739743  1
  O  O17  1  0.740606  0.075390  0.312892  1
  O  O18  1  0.489395  0.665488  0.943248  1
  O  O19  1  0.862692  0.235745  0.117266  1
  O  O20  1  0.684045  0.483684  0.531588  1
  O  O21  1  0.542339  0.434087  0.865372  1
  O  O22  1  0.511744  0.223817  0.982893  1
  O  O23  1  0.999451  0.541969  0.053143  1
  O  O24  1  0.780298  0.992601  0.574565  1
  O  O25  1  0.863459  0.266193  0.478767  1
  O  O26  1  0.740606  0.924610  0.812892  1
  O  O27  1  0.973443  0.458077  0.321593  1
  O  O28  1  0.862692  0.764255  0.617266  1
  O  O29  1  0.999451  0.458031  0.553143  1
  O  O30  1  0.863459  0.733807  0.978767  1
  O  O31  1  0.973443  0.541923  0.821593  1
  P  P32  1  0.391977  0.147091  0.118101  1
  P  P33  1  0.448664  0.705491  0.371571  1
  P  P34  1  0.391977  0.852909  0.618101  1
  P  P35  1  0.499596  0.467696  0.490405  1
  P  P36  1  0.740706  0.117276  0.176164  1
  P  P37  1  0.448664  0.294509  0.871571  1
  P  P38  1  0.499596  0.532304  0.990405  1
  P  P39  1  0.740706  0.882724  0.676164  1
  P  P40  1  0.887881  0.410942  0.467263  1
  P  P41  1  0.887881  0.589058  0.967263  1
  Sb  Sb42  1  0.077838  0.371295  0.127908  1
  Sb  Sb43  1  0.077838  0.628705  0.627908  1
  Sb  Sb44  1  0.621924  0.858906  0.018094  1
  Sb  Sb45  1  0.621924  0.141094  0.518094  1
