# generated using pymatgen
data_Li2CoP2O7
_symmetry_space_group_name_H-M   'P 1'
_cell_length_a   8.08966273
_cell_length_b   13.40636131
_cell_length_c   5.08447289
_cell_angle_alpha   90.00000000
_cell_angle_beta   92.54235173
_cell_angle_gamma   90.00000000
_symmetry_Int_Tables_number   1
_chemical_formula_structural   Li2CoP2O7
_chemical_formula_sum   'Li8 Co4 P8 O28'
_cell_volume   550.88327511
_cell_formula_units_Z   4
loop_
 _symmetry_equiv_pos_site_id
 _symmetry_equiv_pos_as_xyz
  1  'x, y, z'
loop_
 _atom_site_type_symbol
 _atom_site_label
 _atom_site_symmetry_multiplicity
 _atom_site_fract_x
 _atom_site_fract_y
 _atom_site_fract_z
 _atom_site_occupancy
  Li  Li0  1  0.835063  0.698458  0.259245  1
  Li  Li1  1  0.164937  0.301542  0.740755  1
  Li  Li2  1  0.363138  0.389510  0.329324  1
  Li  Li3  1  0.863138  0.110490  0.829324  1
  Li  Li4  1  0.664937  0.198458  0.240755  1
  Li  Li5  1  0.636862  0.610490  0.670676  1
  Li  Li6  1  0.335063  0.801542  0.759245  1
  Li  Li7  1  0.136862  0.889510  0.170676  1
  Co  Co8  1  0.263055  0.660109  0.301202  1
  Co  Co9  1  0.736945  0.339891  0.698798  1
  Co  Co10  1  0.763055  0.839891  0.801202  1
  Co  Co11  1  0.236945  0.160109  0.198798  1
  P  P12  1  0.275228  0.528610  0.801524  1
  P  P13  1  0.466842  0.178748  0.734281  1
  P  P14  1  0.966842  0.321252  0.234281  1
  P  P15  1  0.224772  0.028610  0.698476  1
  P  P16  1  0.775228  0.971390  0.301524  1
  P  P17  1  0.533158  0.821252  0.265719  1
  P  P18  1  0.033158  0.678748  0.765719  1
  P  P19  1  0.724772  0.471390  0.198476  1
  O  O20  1  0.281104  0.425639  0.684187  1
  O  O21  1  0.718896  0.574361  0.315813  1
  O  O22  1  0.342062  0.230647  0.543269  1
  O  O23  1  0.548704  0.789071  0.976648  1
  O  O24  1  0.872232  0.892862  0.144149  1
  O  O25  1  0.842062  0.269353  0.043269  1
  O  O26  1  0.451296  0.210929  0.023352  1
  O  O27  1  0.657938  0.769353  0.456731  1
  O  O28  1  0.354809  0.808703  0.354239  1
  O  O29  1  0.127768  0.107138  0.855851  1
  O  O30  1  0.048704  0.710929  0.476648  1
  O  O31  1  0.951296  0.289071  0.523352  1
  O  O32  1  0.781104  0.074361  0.184187  1
  O  O33  1  0.145191  0.308703  0.145761  1
  O  O34  1  0.372232  0.607138  0.644149  1
  O  O35  1  0.218896  0.925639  0.815813  1
  O  O36  1  0.077778  0.561484  0.773355  1
  O  O37  1  0.577778  0.938516  0.273355  1
  O  O38  1  0.627768  0.392862  0.355851  1
  O  O39  1  0.645191  0.191297  0.645761  1
  O  O40  1  0.318674  0.535093  0.099732  1
  O  O41  1  0.181326  0.035093  0.400268  1
  O  O42  1  0.157938  0.730647  0.956731  1
  O  O43  1  0.422222  0.061484  0.726645  1
  O  O44  1  0.681326  0.464907  0.900268  1
  O  O45  1  0.922222  0.438516  0.226645  1
  O  O46  1  0.854809  0.691297  0.854239  1
  O  O47  1  0.818674  0.964907  0.599732  1
