# generated using pymatgen
data_LiVPO5
_symmetry_space_group_name_H-M   'P 1'
_cell_length_a   6.93924793
_cell_length_b   7.15495182
_cell_length_c   7.96255085
_cell_angle_alpha   89.78970289
_cell_angle_beta   91.34550895
_cell_angle_gamma   116.64874776
_symmetry_Int_Tables_number   1
_chemical_formula_structural   LiVPO5
_chemical_formula_sum   'Li4 V4 P4 O20'
_cell_volume   353.23682956
_cell_formula_units_Z   4
loop_
 _symmetry_equiv_pos_site_id
 _symmetry_equiv_pos_as_xyz
  1  'x, y, z'
loop_
 _atom_site_type_symbol
 _atom_site_label
 _atom_site_symmetry_multiplicity
 _atom_site_fract_x
 _atom_site_fract_y
 _atom_site_fract_z
 _atom_site_occupancy
  Li  Li0  1  0.306504  0.815296  0.430074  1
  Li  Li1  1  0.204233  0.284121  0.072507  1
  Li  Li2  1  0.795767  0.715879  0.927493  1
  Li  Li3  1  0.693496  0.184704  0.569926  1
  O  O4  1  0.138407  0.865428  0.976600  1
  O  O5  1  0.077655  0.651868  0.242476  1
  O  O6  1  0.237072  0.745825  0.677203  1
  O  O7  1  0.260459  0.579945  0.991660  1
  O  O8  1  0.224482  0.400832  0.512912  1
  O  O9  1  0.443456  0.905683  0.182373  1
  O  O10  1  0.061331  0.098077  0.306476  1
  O  O11  1  0.266451  0.257494  0.828457  1
  O  O12  1  0.652190  0.886124  0.478173  1
  O  O13  1  0.430704  0.356458  0.267788  1
  O  O14  1  0.569296  0.643542  0.732212  1
  O  O15  1  0.347810  0.113876  0.521827  1
  O  O16  1  0.733549  0.742506  0.171543  1
  O  O17  1  0.938669  0.901923  0.693524  1
  O  O18  1  0.556544  0.094317  0.817627  1
  O  O19  1  0.775518  0.599168  0.487088  1
  O  O20  1  0.739541  0.420055  0.008340  1
  O  O21  1  0.762928  0.254175  0.322797  1
  O  O22  1  0.922345  0.348132  0.757524  1
  O  O23  1  0.861593  0.134572  0.023400  1
  P  P24  1  0.232024  0.749609  0.093806  1
  P  P25  1  0.265954  0.243923  0.407174  1
  P  P26  1  0.734046  0.756077  0.592826  1
  P  P27  1  0.767976  0.250391  0.906194  1
  V  V28  1  0.245194  0.517913  0.739204  1
  V  V29  1  0.247742  0.020278  0.763472  1
  V  V30  1  0.752258  0.979722  0.236528  1
  V  V31  1  0.754806  0.482087  0.260796  1
