# generated using pymatgen
data_MoP4O13
_symmetry_space_group_name_H-M   'P 1'
_cell_length_a   7.12694216
_cell_length_b   8.34490593
_cell_length_c   17.39709030
_cell_angle_alpha   90.00000000
_cell_angle_beta   90.00000000
_cell_angle_gamma   90.00000000
_symmetry_Int_Tables_number   1
_chemical_formula_structural   MoP4O13
_chemical_formula_sum   'Mo4 P16 O52'
_cell_volume   1034.66866644
_cell_formula_units_Z   4
loop_
 _symmetry_equiv_pos_site_id
 _symmetry_equiv_pos_as_xyz
  1  'x, y, z'
loop_
 _atom_site_type_symbol
 _atom_site_label
 _atom_site_symmetry_multiplicity
 _atom_site_fract_x
 _atom_site_fract_y
 _atom_site_fract_z
 _atom_site_occupancy
  O  O0  1  0.970445  0.824943  0.852933  1
  O  O1  1  0.996912  0.291158  0.507169  1
  O  O2  1  0.928850  0.877608  0.414330  1
  O  O3  1  0.927439  0.295975  0.216762  1
  O  O4  1  0.003089  0.791157  0.992831  1
  O  O5  1  0.029554  0.324943  0.647067  1
  O  O6  1  0.071151  0.377607  0.085670  1
  O  O7  1  0.072560  0.795975  0.283238  1
  O  O8  1  0.070731  0.071869  0.928623  1
  O  O9  1  0.080998  0.332475  0.802161  1
  O  O10  1  0.107070  0.938530  0.578783  1
  O  O11  1  0.106156  0.763621  0.127387  1
  O  O12  1  0.144048  0.055939  0.714514  1
  O  O13  1  0.147347  0.474101  0.400388  1
  O  O14  1  0.174184  0.505428  0.213872  1
  O  O15  1  0.208431  0.167619  0.411602  1
  O  O16  1  0.247429  0.219406  0.195434  1
  O  O17  1  0.252570  0.780594  0.695434  1
  O  O18  1  0.291568  0.832380  0.911602  1
  O  O19  1  0.325815  0.494572  0.713872  1
  O  O20  1  0.352654  0.525900  0.900388  1
  O  O21  1  0.355951  0.944061  0.214513  1
  O  O22  1  0.393843  0.236379  0.627387  1
  O  O23  1  0.392929  0.061469  0.078783  1
  O  O24  1  0.419001  0.667525  0.302161  1
  O  O25  1  0.429270  0.928130  0.428622  1
  O  O26  1  0.427440  0.204025  0.783238  1
  O  O27  1  0.428849  0.622392  0.585670  1
  O  O28  1  0.470446  0.675058  0.147067  1
  O  O29  1  0.496912  0.208843  0.492831  1
  O  O30  1  0.503088  0.708843  0.007169  1
  O  O31  1  0.529555  0.175058  0.352933  1
  O  O32  1  0.571150  0.122392  0.914330  1
  O  O33  1  0.572561  0.704025  0.716762  1
  O  O34  1  0.570731  0.428130  0.071378  1
  O  O35  1  0.580998  0.167525  0.197839  1
  O  O36  1  0.607071  0.561469  0.421216  1
  O  O37  1  0.606157  0.736379  0.872613  1
  O  O38  1  0.644048  0.444061  0.285487  1
  O  O39  1  0.647347  0.025899  0.599612  1
  O  O40  1  0.674185  0.994572  0.786128  1
  O  O41  1  0.708432  0.332380  0.588398  1
  O  O42  1  0.747429  0.280594  0.804566  1
  O  O43  1  0.752571  0.719406  0.304566  1
  O  O44  1  0.791568  0.667619  0.088398  1
  O  O45  1  0.825815  0.005427  0.286128  1
  O  O46  1  0.852653  0.974101  0.099612  1
  O  O47  1  0.855952  0.555939  0.785486  1
  O  O48  1  0.893843  0.263620  0.372613  1
  O  O49  1  0.929269  0.571870  0.571378  1
  O  O50  1  0.919002  0.832476  0.697839  1
  O  O51  1  0.892929  0.438531  0.921217  1
  P  P52  1  0.897058  0.405831  0.838878  1
  P  P53  1  0.897877  0.853600  0.332245  1
  P  P54  1  0.602942  0.594170  0.338878  1
  P  P55  1  0.918168  0.397751  0.576936  1
  P  P56  1  0.069006  0.317776  0.420597  1
  P  P57  1  0.081832  0.897752  0.923064  1
  P  P58  1  0.102124  0.353600  0.167756  1
  P  P59  1  0.102942  0.905831  0.661122  1
  P  P60  1  0.397059  0.094170  0.161121  1
  P  P61  1  0.397877  0.646400  0.667756  1
  P  P62  1  0.418169  0.102249  0.423065  1
  P  P63  1  0.430994  0.682224  0.920597  1
  P  P64  1  0.569005  0.182225  0.579403  1
  P  P65  1  0.581832  0.602248  0.076935  1
  P  P66  1  0.602123  0.146401  0.832244  1
  P  P67  1  0.930995  0.817776  0.079403  1
  Mo  Mo68  1  0.765950  0.775680  0.783575  1
  Mo  Mo69  1  0.734050  0.224321  0.283575  1
  Mo  Mo70  1  0.265950  0.724321  0.216425  1
  Mo  Mo71  1  0.234051  0.275679  0.716425  1
