# generated using pymatgen
data_LiCo2P5O16
_symmetry_space_group_name_H-M   'P 1'
_cell_length_a   18.56913834
_cell_length_b   6.74635834
_cell_length_c   5.03493140
_cell_angle_alpha   90.00000000
_cell_angle_beta   89.89472404
_cell_angle_gamma   90.00000000
_symmetry_Int_Tables_number   1
_chemical_formula_structural   LiCo2P5O16
_chemical_formula_sum   'Li2 Co4 P10 O32'
_cell_volume   630.74523995
_cell_formula_units_Z   2
loop_
 _symmetry_equiv_pos_site_id
 _symmetry_equiv_pos_as_xyz
  1  'x, y, z'
loop_
 _atom_site_type_symbol
 _atom_site_label
 _atom_site_symmetry_multiplicity
 _atom_site_fract_x
 _atom_site_fract_y
 _atom_site_fract_z
 _atom_site_occupancy
  Li  Li0  1  0.466739  0.362001  0.742671  1
  Li  Li1  1  0.966739  0.637999  0.742670  1
  O  O2  1  0.356847  0.290905  0.231908  1
  O  O3  1  0.919532  0.401735  0.041155  1
  O  O4  1  0.570995  0.947339  0.058655  1
  O  O5  1  0.986139  0.780209  0.360688  1
  O  O6  1  0.007715  0.220771  0.672867  1
  O  O7  1  0.075465  0.637580  0.923576  1
  O  O8  1  0.070994  0.052661  0.058655  1
  O  O9  1  0.117380  0.577107  0.446844  1
  O  O10  1  0.112091  0.976555  0.586157  1
  O  O11  1  0.135238  0.307690  0.788525  1
  O  O12  1  0.197862  0.869258  0.153716  1
  O  O13  1  0.211459  0.593461  0.811141  1
  O  O14  1  0.288909  0.598970  0.217476  1
  O  O15  1  0.308357  0.849433  0.845564  1
  O  O16  1  0.930591  0.919109  0.930870  1
  O  O17  1  0.388978  0.949923  0.386722  1
  O  O18  1  0.391219  0.557557  0.544600  1
  O  O19  1  0.419532  0.598265  0.041154  1
  O  O20  1  0.430591  0.080892  0.930871  1
  O  O21  1  0.888978  0.050077  0.386722  1
  O  O22  1  0.507715  0.779229  0.672866  1
  O  O23  1  0.575465  0.362420  0.923575  1
  O  O24  1  0.891219  0.442444  0.544602  1
  O  O25  1  0.617380  0.422893  0.446845  1
  O  O26  1  0.612091  0.023444  0.586159  1
  O  O27  1  0.635238  0.692310  0.788525  1
  O  O28  1  0.697862  0.130742  0.153717  1
  O  O29  1  0.711459  0.406539  0.811142  1
  O  O30  1  0.788909  0.401029  0.217477  1
  O  O31  1  0.808357  0.150568  0.845563  1
  O  O32  1  0.856847  0.709096  0.231908  1
  O  O33  1  0.486139  0.219792  0.360689  1
  P  P34  1  0.578008  0.873977  0.771387  1
  P  P35  1  0.629832  0.460282  0.740254  1
  P  P36  1  0.751458  0.254967  0.008059  1
  P  P37  1  0.870278  0.476407  0.256813  1
  P  P38  1  0.078008  0.126023  0.771388  1
  P  P39  1  0.129832  0.539716  0.740252  1
  P  P40  1  0.251459  0.745033  0.008059  1
  P  P41  1  0.370278  0.523591  0.256812  1
  P  P42  1  0.420252  0.121620  0.229311  1
  P  P43  1  0.920252  0.878379  0.229312  1
  Co  Co44  1  0.907553  0.180243  0.733762  1
  Co  Co45  1  0.592954  0.176386  0.257289  1
  Co  Co46  1  0.407553  0.819756  0.733761  1
  Co  Co47  1  0.092954  0.823614  0.257290  1
