# generated using pymatgen
data_Co(PO3)3
_symmetry_space_group_name_H-M   'P 1'
_cell_length_a   6.62034118
_cell_length_b   7.32982224
_cell_length_c   6.86429526
_cell_angle_alpha   101.56034422
_cell_angle_beta   86.08744614
_cell_angle_gamma   86.48014636
_symmetry_Int_Tables_number   1
_chemical_formula_structural   Co(PO3)3
_chemical_formula_sum   'Co2 P6 O18'
_cell_volume   324.61692379
_cell_formula_units_Z   2
loop_
 _symmetry_equiv_pos_site_id
 _symmetry_equiv_pos_as_xyz
  1  'x, y, z'
loop_
 _atom_site_type_symbol
 _atom_site_label
 _atom_site_symmetry_multiplicity
 _atom_site_fract_x
 _atom_site_fract_y
 _atom_site_fract_z
 _atom_site_occupancy
  Co  Co0  1  0.842714  0.858843  0.089374  1
  Co  Co1  1  0.157286  0.141157  0.910626  1
  P  P2  1  0.349232  0.803572  0.566973  1
  P  P3  1  0.664527  0.204316  0.876767  1
  P  P4  1  0.335473  0.795684  0.123233  1
  P  P5  1  0.650768  0.196428  0.433027  1
  P  P6  1  0.149485  0.556268  0.804406  1
  P  P7  1  0.850515  0.443732  0.195594  1
  O  O8  1  0.708578  0.403116  0.011479  1
  O  O9  1  0.126082  0.350769  0.756935  1
  O  O10  1  0.833543  0.065193  0.910887  1
  O  O11  1  0.720332  0.391309  0.376912  1
  O  O12  1  0.434570  0.173022  0.406603  1
  O  O13  1  0.291422  0.596884  0.988521  1
  O  O14  1  0.295374  0.751648  0.337847  1
  O  O15  1  0.279668  0.608691  0.623088  1
  O  O16  1  0.873918  0.649231  0.243065  1
  O  O17  1  0.166457  0.934807  0.089113  1
  O  O18  1  0.550347  0.829667  0.071563  1
  O  O19  1  0.704626  0.248352  0.662153  1
  O  O20  1  0.449653  0.170333  0.928437  1
  O  O21  1  0.046194  0.316676  0.146733  1
  O  O22  1  0.809964  0.042116  0.324257  1
  O  O23  1  0.953806  0.683324  0.853267  1
  O  O24  1  0.190036  0.957884  0.675743  1
  O  O25  1  0.565430  0.826978  0.593397  1
