# generated using pymatgen
data_MnPO4
_symmetry_space_group_name_H-M   'P 1'
_cell_length_a   7.52907653
_cell_length_b   7.52907639
_cell_length_c   9.32910178
_cell_angle_alpha   89.99160505
_cell_angle_beta   90.00839497
_cell_angle_gamma   59.91801454
_symmetry_Int_Tables_number   1
_chemical_formula_structural   MnPO4
_chemical_formula_sum   'Mn6 P6 O24'
_cell_volume   457.60891714
_cell_formula_units_Z   6
loop_
 _symmetry_equiv_pos_site_id
 _symmetry_equiv_pos_as_xyz
  1  'x, y, z'
loop_
 _atom_site_type_symbol
 _atom_site_label
 _atom_site_symmetry_multiplicity
 _atom_site_fract_x
 _atom_site_fract_y
 _atom_site_fract_z
 _atom_site_occupancy
  Mn  Mn0  1  0.947873  0.446687  0.468684  1
  Mn  Mn1  1  0.605716  0.947549  0.468797  1
  Mn  Mn2  1  0.553313  0.052127  0.968684  1
  Mn  Mn3  1  0.052451  0.394284  0.968797  1
  Mn  Mn4  1  0.394464  0.553616  0.968893  1
  Mn  Mn5  1  0.446384  0.605536  0.468893  1
  P  P6  1  0.666888  0.666946  0.170596  1
  P  P7  1  0.999633  0.000416  0.023312  1
  P  P8  1  0.666883  0.666480  0.779389  1
  P  P9  1  0.999584  0.000367  0.523312  1
  P  P10  1  0.333520  0.333117  0.279389  1
  P  P11  1  0.333054  0.333112  0.670596  1
  O  O12  1  0.667120  0.667023  0.609324  1
  O  O13  1  0.891659  0.883898  0.465032  1
  O  O14  1  0.534597  0.143592  0.623027  1
  O  O15  1  0.391612  0.116117  0.331594  1
  O  O16  1  0.678782  0.856347  0.123025  1
  O  O17  1  0.116102  0.108341  0.965032  1
  O  O18  1  0.608835  0.507841  0.830999  1
  O  O19  1  0.333164  0.332157  0.843425  1
  O  O20  1  0.000319  0.999805  0.685785  1
  O  O21  1  0.508011  0.883684  0.831436  1
  O  O22  1  0.224409  0.892168  0.465290  1
  O  O23  1  0.332977  0.332880  0.109324  1
  O  O24  1  0.774705  0.116974  0.965330  1
  O  O25  1  0.465569  0.678945  0.123848  1
  O  O26  1  0.000195  0.999681  0.185785  1
  O  O27  1  0.883883  0.608388  0.831594  1
  O  O28  1  0.143653  0.321218  0.623025  1
  O  O29  1  0.107832  0.775591  0.965290  1
  O  O30  1  0.883026  0.225295  0.465330  1
  O  O31  1  0.116316  0.491989  0.331436  1
  O  O32  1  0.667843  0.666836  0.343425  1
  O  O33  1  0.492159  0.391165  0.330999  1
  O  O34  1  0.856408  0.465403  0.123027  1
  O  O35  1  0.321055  0.534431  0.623848  1
