# generated using pymatgen
data_LiCr2P5O16
_symmetry_space_group_name_H-M   'P 1'
_cell_length_a   18.76174060
_cell_length_b   6.74222395
_cell_length_c   5.02727990
_cell_angle_alpha   90.00000000
_cell_angle_beta   89.88428382
_cell_angle_gamma   90.00000000
_symmetry_Int_Tables_number   1
_chemical_formula_structural   LiCr2P5O16
_chemical_formula_sum   'Li2 Cr4 P10 O32'
_cell_volume   635.92878105
_cell_formula_units_Z   2
loop_
 _symmetry_equiv_pos_site_id
 _symmetry_equiv_pos_as_xyz
  1  'x, y, z'
loop_
 _atom_site_type_symbol
 _atom_site_label
 _atom_site_symmetry_multiplicity
 _atom_site_fract_x
 _atom_site_fract_y
 _atom_site_fract_z
 _atom_site_occupancy
  Li  Li0  1  0.474269  0.367863  0.726890  1
  Li  Li1  1  0.974269  0.632138  0.726892  1
  O  O2  1  0.359867  0.299514  0.223344  1
  O  O3  1  0.917954  0.382156  0.049470  1
  O  O4  1  0.577517  0.364938  0.925648  1
  O  O5  1  0.987320  0.774208  0.356044  1
  O  O6  1  0.009174  0.229941  0.661570  1
  O  O7  1  0.067814  0.056882  0.052324  1
  O  O8  1  0.077516  0.635063  0.925649  1
  O  O9  1  0.109498  0.975349  0.581164  1
  O  O10  1  0.117682  0.570488  0.449216  1
  O  O11  1  0.136254  0.303566  0.788747  1
  O  O12  1  0.195124  0.864854  0.153230  1
  O  O13  1  0.211726  0.590067  0.812722  1
  O  O14  1  0.288379  0.602200  0.219650  1
  O  O15  1  0.304799  0.856282  0.847828  1
  O  O16  1  0.930332  0.925296  0.938374  1
  O  O17  1  0.389001  0.963536  0.404998  1
  O  O18  1  0.389914  0.561325  0.548016  1
  O  O19  1  0.417954  0.617843  0.049471  1
  O  O20  1  0.430332  0.074705  0.938375  1
  O  O21  1  0.889001  0.036464  0.404997  1
  O  O22  1  0.509175  0.770059  0.661569  1
  O  O23  1  0.567814  0.943119  0.052324  1
  O  O24  1  0.889915  0.438675  0.548016  1
  O  O25  1  0.609499  0.024650  0.581163  1
  O  O26  1  0.617682  0.429513  0.449215  1
  O  O27  1  0.636254  0.696434  0.788747  1
  O  O28  1  0.695124  0.135145  0.153232  1
  O  O29  1  0.711726  0.409933  0.812721  1
  O  O30  1  0.788379  0.397800  0.219649  1
  O  O31  1  0.804800  0.143717  0.847827  1
  O  O32  1  0.859867  0.700486  0.223344  1
  O  O33  1  0.487321  0.225791  0.356044  1
  P  P34  1  0.576454  0.872721  0.766897  1
  P  P35  1  0.631001  0.466115  0.740578  1
  P  P36  1  0.749853  0.253752  0.006322  1
  P  P37  1  0.868946  0.468116  0.258984  1
  P  P38  1  0.076454  0.127279  0.766895  1
  P  P39  1  0.131001  0.533884  0.740579  1
  P  P40  1  0.249853  0.746249  0.006323  1
  P  P41  1  0.368946  0.531884  0.258985  1
  P  P42  1  0.421002  0.125473  0.233886  1
  P  P43  1  0.921002  0.874526  0.233886  1
  Cr  Cr44  1  0.907718  0.181441  0.745449  1
  Cr  Cr45  1  0.592582  0.180394  0.253097  1
  Cr  Cr46  1  0.407717  0.818559  0.745450  1
  Cr  Cr47  1  0.092581  0.819605  0.253097  1
