# generated using pymatgen
data_Sn2(PO3)5
_symmetry_space_group_name_H-M   'P 1'
_cell_length_a   12.65458963
_cell_length_b   9.35063527
_cell_length_c   5.47936070
_cell_angle_alpha   90.00000000
_cell_angle_beta   90.46915786
_cell_angle_gamma   90.00000000
_symmetry_Int_Tables_number   1
_chemical_formula_structural   Sn2(PO3)5
_chemical_formula_sum   'Sn4 P10 O30'
_cell_volume   648.34253482
_cell_formula_units_Z   2
loop_
 _symmetry_equiv_pos_site_id
 _symmetry_equiv_pos_as_xyz
  1  'x, y, z'
loop_
 _atom_site_type_symbol
 _atom_site_label
 _atom_site_symmetry_multiplicity
 _atom_site_fract_x
 _atom_site_fract_y
 _atom_site_fract_z
 _atom_site_occupancy
  O  O0  1  0.014120  0.167277  0.627485  1
  O  O1  1  0.030130  0.168549  0.154996  1
  O  O2  1  0.074884  0.494152  0.792818  1
  O  O3  1  0.122850  0.354957  0.399978  1
  O  O4  1  0.173578  0.905435  0.102458  1
  O  O5  1  0.174728  0.611592  0.434754  1
  O  O6  1  0.185489  0.102032  0.430880  1
  O  O7  1  0.262652  0.412124  0.688204  1
  O  O8  1  0.317258  0.087288  0.083021  1
  O  O9  1  0.328220  0.610284  -0.024578  1
  O  O10  1  0.320444  0.909702  0.437268  1
  O  O11  1  0.352881  0.347669  0.083022  1
  O  O12  1  0.456837  0.453879  0.731062  1
  O  O13  1  0.490116  0.171490  0.911951  1
  O  O14  1  0.455399  0.190745  0.375661  1
  O  O15  1  0.530130  0.831451  0.654996  1
  O  O16  1  0.514120  0.832723  0.127485  1
  O  O17  1  0.574884  0.505848  0.292818  1
  O  O18  1  0.622850  0.645043  0.899978  1
  O  O19  1  0.673578  0.094565  0.602458  1
  O  O20  1  0.674728  0.388408  0.934754  1
  O  O21  1  0.685489  0.897968  0.930880  1
  O  O22  1  0.762652  0.587876  0.188204  1
  O  O23  1  0.817258  0.912712  0.583021  1
  O  O24  1  0.828220  0.389716  0.475422  1
  O  O25  1  0.820444  0.090298  0.937268  1
  O  O26  1  0.852881  0.652331  0.583022  1
  O  O27  1  0.956837  0.546121  0.231062  1
  O  O28  1  0.955399  0.809255  0.875661  1
  O  O29  1  0.990116  0.828510  0.411951  1
  P  P30  1  0.077865  0.193546  0.401835  1
  P  P31  1  0.153017  0.479580  0.588542  1
  P  P32  1  0.248296  0.988416  0.266233  1
  P  P33  1  0.354070  0.467949  0.871010  1
  P  P34  1  0.413543  0.197223  0.117630  1
  P  P35  1  0.577865  0.806454  0.901835  1
  P  P36  1  0.653017  0.520420  0.088542  1
  P  P37  1  0.748296  0.011584  0.766233  1
  P  P38  1  0.854070  0.532051  0.371010  1
  P  P39  1  0.913543  0.802777  0.617630  1
  Sn  Sn40  1  0.072112  0.710608  0.131529  1
  Sn  Sn41  1  0.420574  0.712607  0.399516  1
  Sn  Sn42  1  0.572112  0.289392  0.631529  1
  Sn  Sn43  1  0.920574  0.287393  0.899516  1
