# generated using pymatgen
data_La4CoO8
_symmetry_space_group_name_H-M   'P 1'
_cell_length_a   5.34915385
_cell_length_b   6.91961109
_cell_length_c   6.91961109
_cell_angle_alpha   45.12126261
_cell_angle_beta   90.00000000
_cell_angle_gamma   90.00000000
_symmetry_Int_Tables_number   1
_chemical_formula_structural   La4CoO8
_chemical_formula_sum   'La4 Co1 O8'
_cell_volume   181.48915364
_cell_formula_units_Z   1
loop_
 _symmetry_equiv_pos_site_id
 _symmetry_equiv_pos_as_xyz
  1  'x, y, z'
loop_
 _atom_site_type_symbol
 _atom_site_label
 _atom_site_symmetry_multiplicity
 _atom_site_fract_x
 _atom_site_fract_y
 _atom_site_fract_z
 _atom_site_occupancy
  O  O0  1  0.738354  0.751904  0.248096  1
  O  O1  1  0.738354  0.248096  0.751904  1
  O  O2  1  0.500000  0.838421  0.838421  1
  O  O3  1  0.500000  0.161579  0.161579  1
  O  O4  1  0.261646  0.248096  0.751904  1
  O  O5  1  0.000000  0.311754  0.311754  1
  O  O6  1  0.000000  0.688246  0.688246  1
  O  O7  1  0.261646  0.751904  0.248096  1
  Co  Co8  1  0.500000  0.000000  0.000000  1
  La  La9  1  0.500000  0.633690  0.633690  1
  La  La10  1  0.000000  0.865435  0.865435  1
  La  La11  1  0.000000  0.134565  0.134565  1
  La  La12  1  0.500000  0.366310  0.366310  1
