# generated using pymatgen
data_Pr(WO4)2
_symmetry_space_group_name_H-M   'P 1'
_cell_length_a   7.60349168
_cell_length_b   8.28791814
_cell_length_c   7.42951191
_cell_angle_alpha   115.30234451
_cell_angle_beta   116.10330096
_cell_angle_gamma   56.10726780
_symmetry_Int_Tables_number   1
_chemical_formula_structural   Pr(WO4)2
_chemical_formula_sum   'Pr2 W4 O16'
_cell_volume   338.42710069
_cell_formula_units_Z   2
loop_
 _symmetry_equiv_pos_site_id
 _symmetry_equiv_pos_as_xyz
  1  'x, y, z'
loop_
 _atom_site_type_symbol
 _atom_site_label
 _atom_site_symmetry_multiplicity
 _atom_site_fract_x
 _atom_site_fract_y
 _atom_site_fract_z
 _atom_site_occupancy
  O  O0  1  0.188127  0.003944  0.854636  1
  O  O1  1  0.096862  0.352820  0.831358  1
  O  O2  1  0.094731  0.179073  0.399537  1
  O  O3  1  0.478973  0.997470  0.710243  1
  O  O4  1  0.212017  0.675956  0.924095  1
  O  O5  1  0.272418  0.474978  0.520222  1
  O  O6  1  0.163391  0.838282  0.483867  1
  O  O7  1  0.446643  0.358499  0.197229  1
  O  O8  1  0.553357  0.641501  0.802771  1
  O  O9  1  0.836609  0.161718  0.516133  1
  O  O10  1  0.727582  0.525022  0.479778  1
  O  O11  1  0.787983  0.324044  0.075905  1
  O  O12  1  0.521027  0.002530  0.289757  1
  O  O13  1  0.905269  0.820927  0.600463  1
  O  O14  1  0.903138  0.647180  0.168642  1
  O  O15  1  0.811873  0.996056  0.145364  1
  Pr  Pr16  1  0.163676  0.287405  0.172636  1
  Pr  Pr17  1  0.836324  0.712595  0.827364  1
  W  W18  1  0.186054  0.104960  0.648606  1
  W  W19  1  0.262113  0.706410  0.726878  1
  W  W20  1  0.737887  0.293590  0.273122  1
  W  W21  1  0.813946  0.895040  0.351394  1
