# generated using pymatgen
data_MnP2O7
_symmetry_space_group_name_H-M   'P 1'
_cell_length_a   5.09471208
_cell_length_b   5.09471209
_cell_length_c   4.47005834
_cell_angle_alpha   81.66747001
_cell_angle_beta   98.33253003
_cell_angle_gamma   79.55441182
_symmetry_Int_Tables_number   1
_chemical_formula_structural   MnP2O7
_chemical_formula_sum   'Mn1 P2 O7'
_cell_volume   111.13692932
_cell_formula_units_Z   1
loop_
 _symmetry_equiv_pos_site_id
 _symmetry_equiv_pos_as_xyz
  1  'x, y, z'
loop_
 _atom_site_type_symbol
 _atom_site_label
 _atom_site_symmetry_multiplicity
 _atom_site_fract_x
 _atom_site_fract_y
 _atom_site_fract_z
 _atom_site_occupancy
  O  O0  1  0.548000  0.548002  0.499999  1
  O  O1  1  0.142019  0.437620  0.731549  1
  O  O2  1  0.071051  0.810380  0.285674  1
  O  O3  1  0.338159  0.857950  0.811937  1
  O  O4  1  0.810381  0.071051  0.714326  1
  O  O5  1  0.857951  0.338158  0.188064  1
  O  O6  1  0.437620  0.142018  0.268452  1
  P  P7  1  0.261992  0.667812  0.591218  1
  P  P8  1  0.667814  0.261991  0.408781  1
  Mn  Mn9  1  0.112194  0.112196  0.000000  1
