# generated using pymatgen
data_Li4Cu(PO4)2
_symmetry_space_group_name_H-M   'P 1'
_cell_length_a   6.38317132
_cell_length_b   5.24729247
_cell_length_c   9.94556582
_cell_angle_alpha   89.69987038
_cell_angle_beta   89.56417535
_cell_angle_gamma   90.45566880
_symmetry_Int_Tables_number   1
_chemical_formula_structural   Li4Cu(PO4)2
_chemical_formula_sum   'Li8 Cu2 P4 O16'
_cell_volume   333.09558100
_cell_formula_units_Z   2
loop_
 _symmetry_equiv_pos_site_id
 _symmetry_equiv_pos_as_xyz
  1  'x, y, z'
loop_
 _atom_site_type_symbol
 _atom_site_label
 _atom_site_symmetry_multiplicity
 _atom_site_fract_x
 _atom_site_fract_y
 _atom_site_fract_z
 _atom_site_occupancy
  Li  Li0  1  0.762983  0.317956  0.491246  1
  Li  Li1  1  0.246494  0.671487  0.251477  1
  Li  Li2  1  0.243287  0.325991  0.003896  1
  Li  Li3  1  0.242569  0.670476  0.750351  1
  Li  Li4  1  0.240942  0.323187  0.497228  1
  Li  Li5  1  0.490241  0.843072  0.004346  1
  Li  Li6  1  0.753377  0.684078  0.254026  1
  Li  Li7  1  0.497185  0.842185  0.491324  1
  Cu  Cu8  1  0.767368  0.321667  0.009501  1
  Cu  Cu9  1  0.747479  0.677437  0.739610  1
  P  P10  1  0.001766  0.822689  0.499971  1
  P  P11  1  0.493714  0.184757  0.750779  1
  P  P12  1  0.497149  0.180593  0.249165  1
  P  P13  1  0.004705  0.819744  0.009871  1
  O  O14  1  0.000824  0.104443  0.965887  1
  O  O15  1  0.704565  0.321347  0.198793  1
  O  O16  1  0.002579  0.106401  0.466237  1
  O  O17  1  0.496341  0.183085  0.908647  1
  O  O18  1  0.698069  0.316472  0.696395  1
  O  O19  1  0.496034  0.897635  0.701759  1
  O  O20  1  0.200675  0.692298  0.947010  1
  O  O21  1  0.302633  0.321664  0.696666  1
  O  O22  1  0.793465  0.691916  0.951093  1
  O  O23  1  0.000076  0.786368  0.161309  1
  O  O24  1  0.002501  0.787240  0.658318  1
  O  O25  1  0.502797  0.188263  0.405599  1
  O  O26  1  0.309202  0.324972  0.193358  1
  O  O27  1  0.204076  0.690044  0.448134  1
  O  O28  1  0.500821  0.897734  0.201143  1
  O  O29  1  0.797560  0.688860  0.449470  1
