# generated using pymatgen
data_LiFePCO7
_symmetry_space_group_name_H-M   'P 1'
_cell_length_a   5.21732576
_cell_length_b   6.44292861
_cell_length_c   8.62462722
_cell_angle_alpha   90.00000000
_cell_angle_beta   85.31021534
_cell_angle_gamma   90.00000000
_symmetry_Int_Tables_number   1
_chemical_formula_structural   LiFePCO7
_chemical_formula_sum   'Li2 Fe2 P2 C2 O14'
_cell_volume   288.94497067
_cell_formula_units_Z   2
loop_
 _symmetry_equiv_pos_site_id
 _symmetry_equiv_pos_as_xyz
  1  'x, y, z'
loop_
 _atom_site_type_symbol
 _atom_site_label
 _atom_site_symmetry_multiplicity
 _atom_site_fract_x
 _atom_site_fract_y
 _atom_site_fract_z
 _atom_site_occupancy
  Li  Li0  1  0.205638  0.980666  0.216717  1
  Li  Li1  1  0.794362  0.480666  0.783283  1
  C  C2  1  0.723651  0.752422  0.064117  1
  C  C3  1  0.276349  0.252422  0.935883  1
  O  O4  1  0.169447  0.561944  0.671734  1
  O  O5  1  0.950883  0.760245  0.115147  1
  O  O6  1  0.464027  0.277692  0.827926  1
  O  O7  1  0.535972  0.777692  0.172074  1
  O  O8  1  0.798397  0.446526  0.322135  1
  O  O9  1  0.134863  0.768278  0.420636  1
  O  O10  1  0.201603  0.946526  0.677865  1
  O  O11  1  0.865136  0.268278  0.579364  1
  O  O12  1  0.830553  0.061944  0.328266  1
  O  O13  1  0.440412  0.239218  0.464614  1
  O  O14  1  0.687895  0.715545  0.924751  1
  O  O15  1  0.312105  0.215545  0.075249  1
  O  O16  1  0.559588  0.739218  0.535386  1
  O  O17  1  0.049117  0.260245  0.884853  1
  P  P18  1  0.737017  0.254044  0.423050  1
  P  P19  1  0.262983  0.754044  0.576950  1
  Fe  Fe20  1  0.787144  0.746621  0.350669  1
  Fe  Fe21  1  0.212856  0.246621  0.649331  1
