# generated using pymatgen
data_FeP2O7
_symmetry_space_group_name_H-M   'P 1'
_cell_length_a   9.05344528
_cell_length_b   8.43723085
_cell_length_c   6.98355702
_cell_angle_alpha   90.00000000
_cell_angle_beta   103.45329583
_cell_angle_gamma   90.00000000
_symmetry_Int_Tables_number   1
_chemical_formula_structural   FeP2O7
_chemical_formula_sum   'Fe4 P8 O28'
_cell_volume   518.80822178
_cell_formula_units_Z   4
loop_
 _symmetry_equiv_pos_site_id
 _symmetry_equiv_pos_as_xyz
  1  'x, y, z'
loop_
 _atom_site_type_symbol
 _atom_site_label
 _atom_site_symmetry_multiplicity
 _atom_site_fract_x
 _atom_site_fract_y
 _atom_site_fract_z
 _atom_site_occupancy
  Fe  Fe0  1  0.250111  0.556094  0.749736  1
  Fe  Fe1  1  0.250111  0.943906  0.749736  1
  Fe  Fe2  1  0.749889  0.056094  0.250264  1
  Fe  Fe3  1  0.749889  0.443906  0.250264  1
  O  O4  1  0.134533  0.596928  0.959540  1
  O  O5  1  0.134533  0.903072  0.959540  1
  O  O6  1  0.111859  0.750000  0.601672  1
  O  O7  1  0.109530  0.099802  0.609019  1
  O  O8  1  0.109530  0.400198  0.609019  1
  O  O9  1  0.080999  0.750000  0.241945  1
  O  O10  1  0.109479  0.250000  0.096914  1
  O  O11  1  0.390600  0.099798  0.890811  1
  O  O12  1  0.390600  0.400202  0.890811  1
  O  O13  1  0.388402  0.750000  0.897468  1
  O  O14  1  0.365385  0.596905  0.539707  1
  O  O15  1  0.365385  0.903095  0.539707  1
  O  O16  1  0.390629  0.250000  0.405164  1
  O  O17  1  0.418037  0.750000  0.256809  1
  O  O18  1  0.581963  0.250000  0.743191  1
  O  O19  1  0.609371  0.750000  0.594836  1
  O  O20  1  0.634615  0.096905  0.460293  1
  O  O21  1  0.634615  0.403095  0.460293  1
  O  O22  1  0.611598  0.250000  0.102532  1
  O  O23  1  0.609400  0.599798  0.109189  1
  O  O24  1  0.609400  0.900202  0.109189  1
  O  O25  1  0.890522  0.750000  0.903086  1
  O  O26  1  0.919001  0.250000  0.758055  1
  O  O27  1  0.890470  0.599802  0.390981  1
  O  O28  1  0.890470  0.900198  0.390981  1
  O  O29  1  0.888141  0.250000  0.398328  1
  O  O30  1  0.865467  0.096928  0.040460  1
  O  O31  1  0.865467  0.403072  0.040460  1
  P  P32  1  0.015806  0.250000  0.590880  1
  P  P33  1  0.059571  0.750000  0.007856  1
  P  P34  1  0.484369  0.250000  0.909540  1
  P  P35  1  0.440115  0.750000  0.491034  1
  P  P36  1  0.559885  0.250000  0.508966  1
  P  P37  1  0.515631  0.750000  0.090460  1
  P  P38  1  0.940429  0.250000  0.992144  1
  P  P39  1  0.984194  0.750000  0.409120  1
