# generated using pymatgen
data_NiPO4
_symmetry_space_group_name_H-M   'P 1'
_cell_length_a   4.77018613
_cell_length_b   4.77018612
_cell_length_c   6.40123608
_cell_angle_alpha   90.00000000
_cell_angle_beta   90.00000000
_cell_angle_gamma   66.22336124
_symmetry_Int_Tables_number   1
_chemical_formula_structural   NiPO4
_chemical_formula_sum   'Ni2 P2 O8'
_cell_volume   133.29519695
_cell_formula_units_Z   2
loop_
 _symmetry_equiv_pos_site_id
 _symmetry_equiv_pos_as_xyz
  1  'x, y, z'
loop_
 _atom_site_type_symbol
 _atom_site_label
 _atom_site_symmetry_multiplicity
 _atom_site_fract_x
 _atom_site_fract_y
 _atom_site_fract_z
 _atom_site_occupancy
  O  O0  1  0.248001  0.248003  0.047481  1
  O  O1  1  0.779670  0.290484  0.750001  1
  O  O2  1  0.220330  0.709515  0.250000  1
  O  O3  1  0.290485  0.779671  0.750001  1
  O  O4  1  0.751998  0.751999  0.952518  1
  O  O5  1  0.248001  0.248003  0.452519  1
  O  O6  1  0.709516  0.220331  0.250000  1
  O  O7  1  0.751998  0.751999  0.547482  1
  P  P8  1  0.354389  0.354390  0.250000  1
  P  P9  1  0.645610  0.645612  0.750001  1
  Ni  Ni10  1  0.000000  0.000000  0.499999  1
  Ni  Ni11  1  0.000000  0.000000  0.000000  1
