# generated using pymatgen
data_LiFePO4F
_symmetry_space_group_name_H-M   'P 1'
_cell_length_a   5.21320477
_cell_length_b   5.36662656
_cell_length_c   7.43992905
_cell_angle_alpha   109.78476542
_cell_angle_beta   106.35472407
_cell_angle_gamma   97.88838705
_symmetry_Int_Tables_number   1
_chemical_formula_structural   LiFePO4F
_chemical_formula_sum   'Li2 Fe2 P2 O8 F2'
_cell_volume   181.59627096
_cell_formula_units_Z   2
loop_
 _symmetry_equiv_pos_site_id
 _symmetry_equiv_pos_as_xyz
  1  'x, y, z'
loop_
 _atom_site_type_symbol
 _atom_site_label
 _atom_site_symmetry_multiplicity
 _atom_site_fract_x
 _atom_site_fract_y
 _atom_site_fract_z
 _atom_site_occupancy
  Li  Li0  1  0.918954  0.573233  0.187423  1
  Li  Li1  1  0.081046  0.426767  0.812577  1
  O  O2  1  0.716383  0.842115  0.084368  1
  O  O3  1  0.649876  0.682143  0.340672  1
  O  O4  1  0.350124  0.317857  0.659328  1
  O  O5  1  0.637304  0.176847  0.389340  1
  O  O6  1  0.283617  0.157885  0.915632  1
  O  O7  1  0.362696  0.823153  0.610660  1
  O  O8  1  0.238982  0.777804  0.113365  1
  O  O9  1  0.761018  0.222196  0.886635  1
  F  F10  1  0.134207  0.334713  0.263528  1
  F  F11  1  0.865793  0.665287  0.736472  1
  P  P12  1  0.440941  0.121596  0.763099  1
  P  P13  1  0.559059  0.878404  0.236901  1
  Fe  Fe14  1  0.000000  0.000000  0.000000  1
  Fe  Fe15  1  0.500000  0.500000  0.500000  1
