# generated using pymatgen
data_FeP2O7
_symmetry_space_group_name_H-M   'P 1'
_cell_length_a   12.66866730
_cell_length_b   5.15270197
_cell_length_c   8.74553748
_cell_angle_alpha   90.00000000
_cell_angle_beta   102.98095754
_cell_angle_gamma   90.00000000
_symmetry_Int_Tables_number   1
_chemical_formula_structural   FeP2O7
_chemical_formula_sum   'Fe4 P8 O28'
_cell_volume   556.30080843
_cell_formula_units_Z   4
loop_
 _symmetry_equiv_pos_site_id
 _symmetry_equiv_pos_as_xyz
  1  'x, y, z'
loop_
 _atom_site_type_symbol
 _atom_site_label
 _atom_site_symmetry_multiplicity
 _atom_site_fract_x
 _atom_site_fract_y
 _atom_site_fract_z
 _atom_site_occupancy
  Fe  Fe0  1  0.025242  0.254283  0.258191  1
  Fe  Fe1  1  0.525242  0.245717  0.758191  1
  Fe  Fe2  1  0.474758  0.754283  0.241809  1
  Fe  Fe3  1  0.974758  0.745717  0.741809  1
  O  O4  1  0.059929  0.067469  0.807006  1
  O  O5  1  0.084039  0.534836  0.893372  1
  O  O6  1  0.062761  0.684704  0.580839  1
  O  O7  1  0.127327  0.037933  0.418203  1
  O  O8  1  0.120618  0.560803  0.336928  1
  O  O9  1  0.112382  0.182730  0.099414  1
  O  O10  1  0.243152  0.225281  0.921116  1
  O  O11  1  0.256848  0.725281  0.578884  1
  O  O12  1  0.437239  0.184704  0.919161  1
  O  O13  1  0.415962  0.034836  0.606628  1
  O  O14  1  0.387618  0.682730  0.400586  1
  O  O15  1  0.440071  0.567469  0.692994  1
  O  O16  1  0.379382  0.060803  0.163072  1
  O  O17  1  0.372673  0.537933  0.081797  1
  O  O18  1  0.627327  0.462067  0.918203  1
  O  O19  1  0.620618  0.939197  0.836928  1
  O  O20  1  0.559929  0.432531  0.307006  1
  O  O21  1  0.612382  0.317270  0.599414  1
  O  O22  1  0.584038  0.965164  0.393372  1
  O  O23  1  0.562761  0.815296  0.080840  1
  O  O24  1  0.743152  0.274719  0.421116  1
  O  O25  1  0.756848  0.774719  0.078884  1
  O  O26  1  0.887618  0.817270  0.900586  1
  O  O27  1  0.879382  0.439197  0.663072  1
  O  O28  1  0.872673  0.962067  0.581797  1
  O  O29  1  0.937239  0.315296  0.419161  1
  O  O30  1  0.915962  0.465164  0.106628  1
  O  O31  1  0.940071  0.932531  0.192994  1
  P  P32  1  0.118754  0.253863  0.932345  1
  P  P33  1  0.137076  0.755444  0.471643  1
  P  P34  1  0.381246  0.753863  0.567655  1
  P  P35  1  0.362924  0.255444  0.028357  1
  P  P36  1  0.637076  0.744556  0.971643  1
  P  P37  1  0.618754  0.246137  0.432345  1
  P  P38  1  0.862924  0.244556  0.528357  1
  P  P39  1  0.881246  0.746137  0.067655  1
