# generated using pymatgen
data_CoSiO4
_symmetry_space_group_name_H-M   'P 1'
_cell_length_a   7.85077465
_cell_length_b   10.09681608
_cell_length_c   5.39280695
_cell_angle_alpha   90.00000000
_cell_angle_beta   90.00000000
_cell_angle_gamma   90.00000000
_symmetry_Int_Tables_number   1
_chemical_formula_structural   CoSiO4
_chemical_formula_sum   'Co4 Si4 O16'
_cell_volume   427.47609228
_cell_formula_units_Z   4
loop_
 _symmetry_equiv_pos_site_id
 _symmetry_equiv_pos_as_xyz
  1  'x, y, z'
loop_
 _atom_site_type_symbol
 _atom_site_label
 _atom_site_symmetry_multiplicity
 _atom_site_fract_x
 _atom_site_fract_y
 _atom_site_fract_z
 _atom_site_occupancy
  O  O0  1  0.557526  0.168517  0.566560  1
  O  O1  1  0.886828  0.159537  0.704483  1
  O  O2  1  0.692875  0.940655  0.726122  1
  O  O3  1  0.859511  0.642990  0.042769  1
  O  O4  1  0.057526  0.331483  0.066560  1
  O  O5  1  0.113172  0.840463  0.204483  1
  O  O6  1  0.307125  0.059345  0.226122  1
  O  O7  1  0.140489  0.357010  0.542769  1
  O  O8  1  0.359511  0.857010  0.542769  1
  O  O9  1  0.640489  0.142990  0.042769  1
  O  O10  1  0.386828  0.340463  0.204483  1
  O  O11  1  0.442474  0.831483  0.066560  1
  O  O12  1  0.192875  0.559345  0.226122  1
  O  O13  1  0.613172  0.659537  0.704483  1
  O  O14  1  0.807125  0.440655  0.726122  1
  O  O15  1  0.942474  0.668517  0.566560  1
  Si  Si16  1  0.195315  0.397524  0.258919  1
  Si  Si17  1  0.304685  0.897524  0.258919  1
  Si  Si18  1  0.695315  0.102476  0.758919  1
  Si  Si19  1  0.804685  0.602476  0.758919  1
  Co  Co20  1  0.975685  0.321153  0.759176  1
  Co  Co21  1  0.524315  0.821153  0.759176  1
  Co  Co22  1  0.475685  0.178847  0.259176  1
  Co  Co23  1  0.024315  0.678847  0.259176  1
