# generated using pymatgen
data_FeP2O7
_symmetry_space_group_name_H-M   'P 1'
_cell_length_a   6.42677282
_cell_length_b   6.42760931
_cell_length_c   13.32773132
_cell_angle_alpha   78.80377864
_cell_angle_beta   77.80157868
_cell_angle_gamma   99.17777005
_symmetry_Int_Tables_number   1
_chemical_formula_structural   FeP2O7
_chemical_formula_sum   'Fe4 P8 O28'
_cell_volume   516.20680059
_cell_formula_units_Z   4
loop_
 _symmetry_equiv_pos_site_id
 _symmetry_equiv_pos_as_xyz
  1  'x, y, z'
loop_
 _atom_site_type_symbol
 _atom_site_label
 _atom_site_symmetry_multiplicity
 _atom_site_fract_x
 _atom_site_fract_y
 _atom_site_fract_z
 _atom_site_occupancy
  Fe  Fe0  1  0.262836  0.121867  0.146569  1
  Fe  Fe1  1  0.231552  0.590529  0.646552  1
  Fe  Fe2  1  0.768448  0.409471  0.353448  1
  Fe  Fe3  1  0.737164  0.878133  0.853431  1
  O  O4  1  0.235830  0.819158  0.126231  1
  O  O5  1  0.088222  0.465680  0.358045  1
  O  O6  1  0.120883  0.015862  0.302569  1
  O  O7  1  0.035807  0.871789  0.876981  1
  O  O8  1  0.098199  0.194052  0.517036  1
  O  O9  1  0.323374  0.446277  0.141963  1
  O  O10  1  0.248797  0.912783  0.622982  1
  O  O11  1  0.281359  0.590649  0.490313  1
  O  O12  1  0.181633  0.576438  0.802566  1
  O  O13  1  0.580656  0.771709  0.009642  1
  O  O14  1  0.220136  0.267948  0.677352  1
  O  O15  1  0.210985  0.615160  0.982914  1
  O  O16  1  0.445467  0.362504  0.373675  1
  O  O17  1  0.554537  0.102491  0.177399  1
  O  O18  1  0.445463  0.897509  0.822601  1
  O  O19  1  0.554533  0.637496  0.626325  1
  O  O20  1  0.789015  0.384840  0.017086  1
  O  O21  1  0.779864  0.732052  0.322648  1
  O  O22  1  0.419344  0.228292  0.990358  1
  O  O23  1  0.818367  0.423562  0.197434  1
  O  O24  1  0.718641  0.409351  0.509687  1
  O  O25  1  0.751203  0.087217  0.377018  1
  O  O26  1  0.676626  0.553723  0.858037  1
  O  O27  1  0.901801  0.805948  0.482964  1
  O  O28  1  0.964193  0.128211  0.123019  1
  O  O29  1  0.879117  0.984138  0.697431  1
  O  O30  1  0.911778  0.534320  0.641955  1
  O  O31  1  0.764170  0.180842  0.873769  1
  P  P32  1  0.342936  0.666812  0.068731  1
  P  P33  1  0.235572  0.411950  0.431266  1
  P  P34  1  0.114027  0.086311  0.634040  1
  P  P35  1  0.220418  0.748042  0.865927  1
  P  P36  1  0.779582  0.251958  0.134073  1
  P  P37  1  0.885973  0.913689  0.365960  1
  P  P38  1  0.764428  0.588050  0.568734  1
  P  P39  1  0.657064  0.333188  0.931269  1
