# generated using pymatgen
data_LiFe3(P3O10)2
_symmetry_space_group_name_H-M   'P 1'
_cell_length_a   8.43782036
_cell_length_b   8.43782037
_cell_length_c   12.30987853
_cell_angle_alpha   90.00000000
_cell_angle_beta   90.00000000
_cell_angle_gamma   75.05486452
_symmetry_Int_Tables_number   1
_chemical_formula_structural   LiFe3(P3O10)2
_chemical_formula_sum   'Li2 Fe6 P12 O40'
_cell_volume   846.77750796
_cell_formula_units_Z   2
loop_
 _symmetry_equiv_pos_site_id
 _symmetry_equiv_pos_as_xyz
  1  'x, y, z'
loop_
 _atom_site_type_symbol
 _atom_site_label
 _atom_site_symmetry_multiplicity
 _atom_site_fract_x
 _atom_site_fract_y
 _atom_site_fract_z
 _atom_site_occupancy
  Li  Li0  1  0.411308  0.588692  0.500000  1
  Li  Li1  1  0.588692  0.411308  0.000000  1
  O  O2  1  0.224802  0.472232  0.801094  1
  O  O3  1  0.965658  0.360894  0.440852  1
  O  O4  1  0.728575  0.258547  0.108805  1
  O  O5  1  0.741452  0.271425  0.891195  1
  O  O6  1  0.639106  0.034343  0.559148  1
  O  O7  1  0.835344  0.215237  0.305381  1
  O  O8  1  0.215237  0.835344  0.194619  1
  O  O9  1  0.164656  0.784764  0.805381  1
  O  O10  1  0.034342  0.639105  0.940852  1
  O  O11  1  0.360895  0.965657  0.059148  1
  O  O12  1  0.258548  0.728575  0.391195  1
  O  O13  1  0.271425  0.741452  0.608805  1
  O  O14  1  0.658107  0.944641  0.758727  1
  O  O15  1  0.055359  0.341894  0.241273  1
  O  O16  1  0.001521  0.262331  0.793654  1
  O  O17  1  0.737669  0.998480  0.206346  1
  O  O18  1  0.274051  0.537240  0.231286  1
  O  O19  1  0.462760  0.725949  0.768714  1
  O  O20  1  0.784764  0.164656  0.694619  1
  O  O21  1  0.527767  0.775198  0.198906  1
  O  O22  1  0.682032  0.847705  0.397095  1
  O  O23  1  0.152295  0.317968  0.602905  1
  O  O24  1  0.848084  0.918620  0.973395  1
  O  O25  1  0.081380  0.151916  0.026605  1
  O  O26  1  0.944640  0.658107  0.741273  1
  O  O27  1  0.274021  0.316511  0.415253  1
  O  O28  1  0.316511  0.274022  0.084747  1
  O  O29  1  0.725978  0.683489  0.915253  1
  O  O30  1  0.151916  0.081380  0.473395  1
  O  O31  1  0.918620  0.848083  0.526605  1
  O  O32  1  0.317968  0.152295  0.897095  1
  O  O33  1  0.847705  0.682033  0.102905  1
  O  O34  1  0.775198  0.527767  0.301094  1
  O  O35  1  0.472233  0.224803  0.698906  1
  O  O36  1  0.537239  0.274050  0.268715  1
  O  O37  1  0.725949  0.462760  0.731286  1
  O  O38  1  0.262332  0.001520  0.706346  1
  O  O39  1  0.998479  0.737669  0.293654  1
  O  O40  1  0.341894  0.055360  0.258727  1
  O  O41  1  0.683489  0.725979  0.584747  1
  P  P42  1  0.851748  0.735377  0.986296  1
  P  P43  1  0.264623  0.148252  0.013704  1
  P  P44  1  0.699147  0.182055  0.221629  1
  P  P45  1  0.735376  0.851748  0.513704  1
  P  P46  1  0.817944  0.300853  0.778371  1
  P  P47  1  0.909480  0.372419  0.315775  1
  P  P48  1  0.090520  0.627581  0.815775  1
  P  P49  1  0.372419  0.909479  0.184225  1
  P  P50  1  0.300853  0.817944  0.721629  1
  P  P51  1  0.182056  0.699147  0.278371  1
  P  P52  1  0.148252  0.264624  0.486296  1
  P  P53  1  0.627581  0.090520  0.684225  1
  Fe  Fe54  1  0.872551  0.127450  0.000000  1
  Fe  Fe55  1  0.761942  0.761943  0.250000  1
  Fe  Fe56  1  0.700728  0.700727  0.750000  1
  Fe  Fe57  1  0.299272  0.299273  0.250000  1
  Fe  Fe58  1  0.238058  0.238058  0.750000  1
  Fe  Fe59  1  0.127450  0.872551  0.500000  1
