# generated using pymatgen
data_Sb(PO3)4
_symmetry_space_group_name_H-M   'P 1'
_cell_length_a   7.66967143
_cell_length_b   7.66967142
_cell_length_c   17.29320093
_cell_angle_alpha   90.00000000
_cell_angle_beta   90.00000000
_cell_angle_gamma   98.68363314
_symmetry_Int_Tables_number   1
_chemical_formula_structural   Sb(PO3)4
_chemical_formula_sum   'Sb4 P16 O48'
_cell_volume   1005.59211363
_cell_formula_units_Z   4
loop_
 _symmetry_equiv_pos_site_id
 _symmetry_equiv_pos_as_xyz
  1  'x, y, z'
loop_
 _atom_site_type_symbol
 _atom_site_label
 _atom_site_symmetry_multiplicity
 _atom_site_fract_x
 _atom_site_fract_y
 _atom_site_fract_z
 _atom_site_occupancy
  O  O0  1  0.063422  0.872705  0.901084  1
  O  O1  1  0.050151  0.642309  0.020591  1
  O  O2  1  0.127295  0.936578  0.098916  1
  O  O3  1  0.090346  0.634681  0.163376  1
  O  O4  1  0.113690  0.647358  0.309084  1
  O  O5  1  0.126819  0.681828  0.774844  1
  O  O6  1  0.193535  0.604375  0.458321  1
  O  O7  1  0.167758  0.239412  0.614224  1
  O  O8  1  0.199778  0.480471  0.901451  1
  O  O9  1  0.223501  0.283580  0.025866  1
  O  O10  1  0.318172  0.873181  0.225156  1
  O  O11  1  0.235155  0.305309  0.319593  1
  O  O12  1  0.239412  0.167758  0.885776  1
  O  O13  1  0.357691  0.949849  0.979409  1
  O  O14  1  0.352642  0.886310  0.690916  1
  O  O15  1  0.283580  0.223501  0.474134  1
  O  O16  1  0.365319  0.909654  0.836624  1
  O  O17  1  0.305309  0.235155  0.180407  1
  O  O18  1  0.358380  0.553564  0.226165  1
  O  O19  1  0.395625  0.806465  0.541679  1
  O  O20  1  0.389331  0.484739  0.563883  1
  O  O21  1  0.446436  0.641620  0.773835  1
  O  O22  1  0.519529  0.800222  0.098549  1
  O  O23  1  0.515261  0.610669  0.436117  1
  O  O24  1  0.484739  0.389331  0.936117  1
  O  O25  1  0.480471  0.199778  0.598549  1
  O  O26  1  0.553564  0.358380  0.273835  1
  O  O27  1  0.610669  0.515261  0.063883  1
  O  O28  1  0.604375  0.193535  0.041679  1
  O  O29  1  0.641620  0.446436  0.726165  1
  O  O30  1  0.694691  0.764845  0.680407  1
  O  O31  1  0.634681  0.090346  0.336624  1
  O  O32  1  0.716420  0.776499  0.974134  1
  O  O33  1  0.647358  0.113690  0.190916  1
  O  O34  1  0.642309  0.050151  0.479409  1
  O  O35  1  0.760588  0.832242  0.385776  1
  O  O36  1  0.764845  0.694691  0.819593  1
  O  O37  1  0.681828  0.126819  0.725156  1
  O  O38  1  0.776499  0.716420  0.525866  1
  O  O39  1  0.800222  0.519529  0.401451  1
  O  O40  1  0.832242  0.760588  0.114224  1
  O  O41  1  0.806465  0.395625  0.958321  1
  O  O42  1  0.873181  0.318172  0.274844  1
  O  O43  1  0.886310  0.352642  0.809084  1
  O  O44  1  0.909654  0.365319  0.663376  1
  O  O45  1  0.872705  0.063422  0.598916  1
  O  O46  1  0.949849  0.357691  0.520591  1
  O  O47  1  0.936578  0.127295  0.401084  1
  P  P48  1  0.032996  0.746983  0.091917  1
  P  P49  1  0.217897  0.689571  0.235913  1
  P  P50  1  0.253017  0.967004  0.908083  1
  P  P51  1  0.310429  0.782103  0.764087  1
  P  P52  1  0.270730  0.333332  0.945346  1
  P  P53  1  0.369181  0.630819  0.500000  1
  P  P54  1  0.333332  0.270730  0.554654  1
  P  P55  1  0.351867  0.351867  0.250000  1
  P  P56  1  0.648133  0.648133  0.750000  1
  P  P57  1  0.666668  0.729270  0.054654  1
  P  P58  1  0.630819  0.369181  0.000000  1
  P  P59  1  0.729270  0.666668  0.445346  1
  P  P60  1  0.689571  0.217897  0.264087  1
  P  P61  1  0.746983  0.032996  0.408083  1
  P  P62  1  0.782103  0.310429  0.735913  1
  P  P63  1  0.967004  0.253017  0.591917  1
  Sb  Sb64  1  0.032473  0.402527  0.387183  1
  Sb  Sb65  1  0.402527  0.032473  0.112817  1
  Sb  Sb66  1  0.597473  0.967527  0.612817  1
  Sb  Sb67  1  0.967527  0.597473  0.887183  1
