# generated using pymatgen
data_LiSnPO4
_symmetry_space_group_name_H-M   'P 1'
_cell_length_a   8.28783481
_cell_length_b   18.72252111
_cell_length_c   5.01330334
_cell_angle_alpha   90.00000000
_cell_angle_beta   90.00000000
_cell_angle_gamma   90.00000000
_symmetry_Int_Tables_number   1
_chemical_formula_structural   LiSnPO4
_chemical_formula_sum   'Li8 Sn8 P8 O32'
_cell_volume   777.91007905
_cell_formula_units_Z   8
loop_
 _symmetry_equiv_pos_site_id
 _symmetry_equiv_pos_as_xyz
  1  'x, y, z'
loop_
 _atom_site_type_symbol
 _atom_site_label
 _atom_site_symmetry_multiplicity
 _atom_site_fract_x
 _atom_site_fract_y
 _atom_site_fract_z
 _atom_site_occupancy
  Li  Li0  1  0.011196  0.943870  0.947134  1
  Li  Li1  1  0.174331  0.346132  0.438344  1
  Li  Li2  1  0.325669  0.846132  0.938344  1
  Li  Li3  1  0.488804  0.443870  0.447134  1
  Li  Li4  1  0.511196  0.556130  0.947134  1
  Li  Li5  1  0.674331  0.153868  0.438344  1
  Li  Li6  1  0.825669  0.653868  0.938344  1
  Li  Li7  1  0.988804  0.056130  0.447134  1
  O  O8  1  0.055094  0.641661  0.814430  1
  O  O9  1  0.097250  0.969662  0.305625  1
  O  O10  1  0.102021  0.470733  0.876172  1
  O  O11  1  0.144768  0.132497  0.385844  1
  O  O12  1  0.179822  0.688109  0.249289  1
  O  O13  1  0.213355  0.922509  0.746132  1
  O  O14  1  0.222009  0.754963  0.814087  1
  O  O15  1  0.252949  0.851803  0.319796  1
  O  O16  1  0.247051  0.351803  0.819796  1
  O  O17  1  0.277991  0.254963  0.314087  1
  O  O18  1  0.286645  0.422509  0.246132  1
  O  O19  1  0.320178  0.188109  0.749289  1
  O  O20  1  0.355232  0.632497  0.885844  1
  O  O21  1  0.397979  0.970733  0.376172  1
  O  O22  1  0.402750  0.469662  0.805625  1
  O  O23  1  0.444906  0.141661  0.314430  1
  O  O24  1  0.555094  0.858339  0.814430  1
  O  O25  1  0.597250  0.530338  0.305625  1
  O  O26  1  0.602021  0.029267  0.876172  1
  O  O27  1  0.644768  0.367503  0.385844  1
  O  O28  1  0.679822  0.811891  0.249289  1
  O  O29  1  0.713355  0.577491  0.746132  1
  O  O30  1  0.722009  0.745037  0.814087  1
  O  O31  1  0.752949  0.648197  0.319796  1
  O  O32  1  0.747051  0.148197  0.819796  1
  O  O33  1  0.777991  0.245037  0.314087  1
  O  O34  1  0.786645  0.077491  0.246132  1
  O  O35  1  0.820178  0.311891  0.749289  1
  O  O36  1  0.855232  0.867503  0.885844  1
  O  O37  1  0.897979  0.529267  0.376172  1
  O  O38  1  0.902750  0.030337  0.805625  1
  O  O39  1  0.944906  0.358339  0.314430  1
  P  P40  1  0.207510  0.678632  0.944078  1
  P  P41  1  0.235378  0.928976  0.442987  1
  P  P42  1  0.264622  0.428976  0.942987  1
  P  P43  1  0.292490  0.178632  0.444078  1
  P  P44  1  0.707510  0.821368  0.944078  1
  P  P45  1  0.735378  0.571024  0.442987  1
  P  P46  1  0.764622  0.071024  0.942987  1
  P  P47  1  0.792490  0.321367  0.444078  1
  Sn  Sn48  1  0.061401  0.776093  0.467082  1
  Sn  Sn49  1  0.159338  0.555119  0.540172  1
  Sn  Sn50  1  0.340662  0.055119  0.040172  1
  Sn  Sn51  1  0.438599  0.276093  0.967082  1
  Sn  Sn52  1  0.561401  0.723907  0.467082  1
  Sn  Sn53  1  0.659338  0.944881  0.540172  1
  Sn  Sn54  1  0.840662  0.444881  0.040172  1
  Sn  Sn55  1  0.938599  0.223907  0.967082  1
