# generated using pymatgen
data_LiNi2P5O16
_symmetry_space_group_name_H-M   'P 1'
_cell_length_a   18.46594012
_cell_length_b   6.81288880
_cell_length_c   5.03646339
_cell_angle_alpha   90.00000000
_cell_angle_beta   90.95676386
_cell_angle_gamma   90.00000000
_symmetry_Int_Tables_number   1
_chemical_formula_structural   LiNi2P5O16
_chemical_formula_sum   'Li2 Ni4 P10 O32'
_cell_volume   633.53097111
_cell_formula_units_Z   2
loop_
 _symmetry_equiv_pos_site_id
 _symmetry_equiv_pos_as_xyz
  1  'x, y, z'
loop_
 _atom_site_type_symbol
 _atom_site_label
 _atom_site_symmetry_multiplicity
 _atom_site_fract_x
 _atom_site_fract_y
 _atom_site_fract_z
 _atom_site_occupancy
  Li  Li0  1  0.968143  0.644185  0.735719  1
  Li  Li1  1  0.468143  0.355815  0.735719  1
  Ni  Ni2  1  0.092915  0.814220  0.261091  1
  Ni  Ni3  1  0.592915  0.185780  0.261091  1
  Ni  Ni4  1  0.406540  0.819938  0.738535  1
  Ni  Ni5  1  0.906540  0.180062  0.738535  1
  P  P6  1  0.128027  0.536930  0.743802  1
  P  P7  1  0.249998  0.752795  0.005634  1
  P  P8  1  0.628027  0.463070  0.743802  1
  P  P9  1  0.418699  0.126058  0.227560  1
  P  P10  1  0.581323  0.873321  0.773889  1
  P  P11  1  0.081323  0.126679  0.773889  1
  P  P12  1  0.371768  0.532735  0.251015  1
  P  P13  1  0.749998  0.247205  0.005634  1
  P  P14  1  0.918699  0.873942  0.227560  1
  P  P15  1  0.871768  0.467265  0.251015  1
  O  O16  1  0.290187  0.605246  0.209302  1
  O  O17  1  0.571579  0.940596  0.061521  1
  O  O18  1  0.511481  0.787640  0.656767  1
  O  O19  1  0.117009  0.974662  0.600572  1
  O  O20  1  0.303861  0.865131  0.845664  1
  O  O21  1  0.883241  0.036209  0.384654  1
  O  O22  1  0.112758  0.562701  0.449599  1
  O  O23  1  0.011481  0.212360  0.656767  1
  O  O24  1  0.358770  0.302671  0.208107  1
  O  O25  1  0.612758  0.437299  0.449599  1
  O  O26  1  0.617009  0.025338  0.600572  1
  O  O27  1  0.432646  0.082150  0.933861  1
  O  O28  1  0.572687  0.368811  0.922920  1
  O  O29  1  0.071579  0.059404  0.061521  1
  O  O30  1  0.858770  0.697329  0.208107  1
  O  O31  1  0.422206  0.613864  0.046079  1
  O  O32  1  0.638396  0.691929  0.798990  1
  O  O33  1  0.195846  0.867105  0.160266  1
  O  O34  1  0.932646  0.917850  0.933861  1
  O  O35  1  0.709185  0.398209  0.809346  1
  O  O36  1  0.383241  0.963791  0.384654  1
  O  O37  1  0.072687  0.631189  0.922920  1
  O  O38  1  0.695846  0.132895  0.160266  1
  O  O39  1  0.393126  0.556928  0.541471  1
  O  O40  1  0.485612  0.211324  0.373656  1
  O  O41  1  0.985612  0.788675  0.373656  1
  O  O42  1  0.893126  0.443072  0.541471  1
  O  O43  1  0.790187  0.394754  0.209302  1
  O  O44  1  0.922206  0.386136  0.046079  1
  O  O45  1  0.803861  0.134869  0.845664  1
  O  O46  1  0.209185  0.601791  0.809346  1
  O  O47  1  0.138396  0.308071  0.798990  1
