# generated using pymatgen
data_LiPWO4F
_symmetry_space_group_name_H-M   'P 1'
_cell_length_a   5.28562152
_cell_length_b   5.63568415
_cell_length_c   7.79728123
_cell_angle_alpha   110.62987442
_cell_angle_beta   106.24482140
_cell_angle_gamma   97.31728358
_symmetry_Int_Tables_number   1
_chemical_formula_structural   LiPWO4F
_chemical_formula_sum   'Li2 P2 W2 O8 F2'
_cell_volume   201.98879257
_cell_formula_units_Z   2
loop_
 _symmetry_equiv_pos_site_id
 _symmetry_equiv_pos_as_xyz
  1  'x, y, z'
loop_
 _atom_site_type_symbol
 _atom_site_label
 _atom_site_symmetry_multiplicity
 _atom_site_fract_x
 _atom_site_fract_y
 _atom_site_fract_z
 _atom_site_occupancy
  Li  Li0  1  0.899364  0.570748  0.171040  1
  Li  Li1  1  0.100636  0.429252  0.828960  1
  O  O2  1  0.698729  0.826859  0.082593  1
  O  O3  1  0.644606  0.678687  0.330012  1
  O  O4  1  0.355394  0.321313  0.669988  1
  O  O5  1  0.622209  0.149525  0.377460  1
  O  O6  1  0.301271  0.173141  0.917407  1
  O  O7  1  0.377791  0.850475  0.622540  1
  O  O8  1  0.233284  0.762674  0.114244  1
  O  O9  1  0.766716  0.237326  0.885756  1
  F  F10  1  0.112294  0.348298  0.264455  1
  F  F11  1  0.887706  0.651702  0.735545  1
  P  P12  1  0.449979  0.135557  0.767705  1
  P  P13  1  0.550021  0.864443  0.232295  1
  W  W14  1  0.000000  0.000000  0.000000  1
  W  W15  1  0.500000  0.500000  0.500000  1
