# generated using pymatgen
data_LiTi(PO3)4
_symmetry_space_group_name_H-M   'P 1'
_cell_length_a   7.39280944
_cell_length_b   7.39280921
_cell_length_c   9.81044901
_cell_angle_alpha   82.04073621
_cell_angle_beta   69.31739435
_cell_angle_gamma   110.33782557
_symmetry_Int_Tables_number   1
_chemical_formula_structural   LiTi(PO3)4
_chemical_formula_sum   'Li2 Ti2 P8 O24'
_cell_volume   449.01176824
_cell_formula_units_Z   2
loop_
 _symmetry_equiv_pos_site_id
 _symmetry_equiv_pos_as_xyz
  1  'x, y, z'
loop_
 _atom_site_type_symbol
 _atom_site_label
 _atom_site_symmetry_multiplicity
 _atom_site_fract_x
 _atom_site_fract_y
 _atom_site_fract_z
 _atom_site_occupancy
  Li  Li0  1  0.791174  0.041174  0.250000  1
  Li  Li1  1  0.208826  0.958826  0.750000  1
  Ti  Ti2  1  -0.000000  0.500000  0.000000  1
  Ti  Ti3  1  -0.000000  -0.000000  0.500000  1
  P  P4  1  0.269292  0.730413  0.473344  1
  P  P5  1  0.000357  0.684017  0.304400  1
  P  P6  1  0.999643  0.315983  0.695600  1
  P  P7  1  0.511581  0.695243  0.804400  1
  P  P8  1  0.703757  0.742636  0.026656  1
  P  P9  1  0.488419  0.304757  0.195600  1
  P  P10  1  0.730708  0.269587  0.526656  1
  P  P11  1  0.296243  0.257364  0.973344  1
  O  O12  1  0.698392  0.295891  0.173472  1
  O  O13  1  0.195851  0.682638  0.338087  1
  O  O14  1  0.479276  0.466062  0.838087  1
  O  O15  1  0.698210  0.809428  0.650763  1
  O  O16  1  0.880661  0.192721  0.427606  1
  O  O17  1  0.879673  0.691733  0.927606  1
  O  O18  1  0.120327  0.308267  0.072394  1
  O  O19  1  0.570685  0.776301  0.932713  1
  O  O20  1  0.039809  0.651026  0.150763  1
  O  O21  1  0.301790  0.190572  0.349237  1
  O  O22  1  0.752776  0.909762  0.092377  1
  O  O23  1  0.520724  0.533938  0.161913  1
  O  O24  1  0.030637  0.128136  0.673472  1
  O  O25  1  0.804149  0.317362  0.661913  1
  O  O26  1  0.301608  0.704109  0.826528  1
  O  O27  1  0.502139  0.845153  0.407623  1
  O  O28  1  0.969363  0.871864  0.326528  1
  O  O29  1  0.429316  0.223699  0.067287  1
  O  O30  1  0.209013  0.503396  0.567287  1
  O  O31  1  0.790987  0.496604  0.432713  1
  O  O32  1  0.497861  0.154847  0.592377  1
  O  O33  1  0.960191  0.348974  0.849237  1
  O  O34  1  0.119339  0.807279  0.572394  1
  O  O35  1  0.247224  0.090238  0.907623  1
