# generated using pymatgen
data_LiMnP2O7
_symmetry_space_group_name_H-M   'P 1'
_cell_length_a   6.36018154
_cell_length_b   10.69141747
_cell_length_c   9.40598178
_cell_angle_alpha   66.50658067
_cell_angle_beta   108.41454218
_cell_angle_gamma   93.61406415
_symmetry_Int_Tables_number   1
_chemical_formula_structural   LiMnP2O7
_chemical_formula_sum   'Li4 Mn4 P8 O28'
_cell_volume   555.09054400
_cell_formula_units_Z   4
loop_
 _symmetry_equiv_pos_site_id
 _symmetry_equiv_pos_as_xyz
  1  'x, y, z'
loop_
 _atom_site_type_symbol
 _atom_site_label
 _atom_site_symmetry_multiplicity
 _atom_site_fract_x
 _atom_site_fract_y
 _atom_site_fract_z
 _atom_site_occupancy
  Li  Li0  1  0.029049  0.502080  0.197643  1
  Li  Li1  1  0.373737  0.595097  0.937051  1
  Li  Li2  1  0.536393  0.021851  0.496585  1
  Li  Li3  1  0.923970  0.474430  0.858993  1
  O  O4  1  0.457363  0.821015  0.921317  1
  O  O5  1  0.917630  0.114241  0.265272  1
  O  O6  1  0.954880  0.730943  0.507215  1
  O  O7  1  0.986549  0.296349  0.728657  1
  O  O8  1  0.052318  0.642562  0.872109  1
  O  O9  1  0.088457  0.897332  0.715261  1
  O  O10  1  0.036659  0.289748  0.468976  1
  O  O11  1  0.011290  0.701364  0.262961  1
  O  O12  1  0.258239  0.038592  0.879493  1
  O  O13  1  0.353772  0.446949  0.847720  1
  O  O14  1  0.214324  0.543203  0.537222  1
  O  O15  1  0.980206  0.366808  0.100456  1
  O  O16  1  0.319803  0.786611  0.453924  1
  O  O17  1  0.125616  0.168578  0.066081  1
  O  O18  1  0.424218  0.317022  0.696434  1
  O  O19  1  0.403305  0.038194  0.657143  1
  O  O20  1  0.293335  0.195214  0.333260  1
  O  O21  1  0.363015  0.469615  0.311781  1
  O  O22  1  0.755137  0.959308  0.115608  1
  O  O23  1  0.714139  0.810892  0.661165  1
  O  O24  1  0.560426  0.690679  0.301561  1
  O  O25  1  0.608561  0.973505  0.331941  1
  O  O26  1  0.901262  0.822680  0.932853  1
  O  O27  1  0.678117  0.219859  0.533663  1
  O  O28  1  0.552947  0.180478  0.055869  1
  O  O29  1  0.633645  0.571673  0.143843  1
  O  O30  1  0.776329  0.464754  0.455381  1
  O  O31  1  0.628815  0.536716  0.682803  1
  P  P32  1  0.876316  0.307195  0.553437  1
  P  P33  1  0.695521  0.049954  0.189764  1
  P  P34  1  0.936683  0.784607  0.802848  1
  P  P35  1  0.568805  0.546605  0.297769  1
  P  P36  1  0.119698  0.701120  0.435220  1
  P  P37  1  0.313723  0.956112  0.796007  1
  P  P38  1  0.419691  0.463795  0.698769  1
  P  P39  1  0.080751  0.220436  0.183484  1
  Mn  Mn40  1  0.270154  0.216819  0.899065  1
  Mn  Mn41  1  0.357814  0.257193  0.510406  1
  Mn  Mn42  1  0.638048  0.752491  0.481251  1
  Mn  Mn43  1  0.736323  0.786874  0.090179  1
