# generated using pymatgen
data_Li2CoP2O7
_symmetry_space_group_name_H-M   'P 1'
_cell_length_a   6.53104632
_cell_length_b   10.40544246
_cell_length_c   9.21860523
_cell_angle_alpha   66.15460011
_cell_angle_beta   106.60050089
_cell_angle_gamma   92.23999007
_symmetry_Int_Tables_number   1
_chemical_formula_structural   Li2CoP2O7
_chemical_formula_sum   'Li8 Co4 P8 O28'
_cell_volume   547.03169598
_cell_formula_units_Z   4
loop_
 _symmetry_equiv_pos_site_id
 _symmetry_equiv_pos_as_xyz
  1  'x, y, z'
loop_
 _atom_site_type_symbol
 _atom_site_label
 _atom_site_symmetry_multiplicity
 _atom_site_fract_x
 _atom_site_fract_y
 _atom_site_fract_z
 _atom_site_occupancy
  Li  Li0  1  0.354137  0.620895  0.926016  1
  Li  Li1  1  0.047500  0.488124  0.205825  1
  Li  Li2  1  0.166640  0.964670  0.484925  1
  Li  Li3  1  0.592058  0.029588  0.509508  1
  Li  Li4  1  0.172622  0.867232  0.112507  1
  Li  Li5  1  0.640879  0.379381  0.074616  1
  Li  Li6  1  0.935454  0.496914  0.826781  1
  Li  Li7  1  0.870343  0.105774  0.892471  1
  Co  Co8  1  0.625896  0.748796  0.488887  1
  Co  Co9  1  0.363488  0.260816  0.503740  1
  Co  Co10  1  0.286861  0.221126  0.894651  1
  Co  Co11  1  0.719624  0.783553  0.097633  1
  P  P12  1  0.874130  0.302189  0.545020  1
  P  P13  1  0.312831  0.947535  0.802007  1
  P  P14  1  0.561555  0.538083  0.290788  1
  P  P15  1  0.080429  0.205778  0.180193  1
  P  P16  1  0.693945  0.054095  0.189211  1
  P  P17  1  0.923993  0.800434  0.808476  1
  P  P18  1  0.433206  0.467933  0.705041  1
  P  P19  1  0.114621  0.701932  0.442175  1
  O  O20  1  0.693260  0.205454  0.528574  1
  O  O21  1  0.613419  0.960436  0.332397  1
  O  O22  1  0.284019  0.180994  0.322266  1
  O  O23  1  0.024061  0.712737  0.263006  1
  O  O24  1  0.448920  0.806520  0.910091  1
  O  O25  1  0.084767  0.903680  0.709240  1
  O  O26  1  0.962103  0.354558  0.091510  1
  O  O27  1  0.738312  0.986061  0.080362  1
  O  O28  1  0.907313  0.861389  0.932031  1
  O  O29  1  0.974895  0.278669  0.727333  1
  O  O30  1  0.237845  0.545022  0.541018  1
  O  O31  1  0.544312  0.692265  0.275221  1
  O  O32  1  0.360586  0.462079  0.310005  1
  O  O33  1  0.561614  0.196532  0.082207  1
  O  O34  1  0.106470  0.148351  0.056793  1
  O  O35  1  0.384454  0.041218  0.652038  1
  O  O36  1  0.927377  0.094929  0.280030  1
  O  O37  1  0.755093  0.461802  0.456764  1
  O  O38  1  0.369266  0.461476  0.856899  1
  O  O39  1  0.287325  0.806390  0.451548  1
  O  O40  1  0.715463  0.826422  0.670729  1
  O  O41  1  0.950321  0.708928  0.526104  1
  O  O42  1  0.632715  0.545723  0.685348  1
  O  O43  1  0.035858  0.650493  0.897237  1
  O  O44  1  0.446734  0.315858  0.713847  1
  O  O45  1  0.268719  0.016983  0.908859  1
  O  O46  1  0.034245  0.305776  0.451802  1
  O  O47  1  0.629177  0.539647  0.142075  1
