# generated using pymatgen
data_LiNi4(PO4)3
_symmetry_space_group_name_H-M   'P 1'
_cell_length_a   6.61380881
_cell_length_b   6.61380881
_cell_length_c   10.36522630
_cell_angle_alpha   71.39522337
_cell_angle_beta   71.39522336
_cell_angle_gamma   89.99999998
_symmetry_Int_Tables_number   1
_chemical_formula_structural   LiNi4(PO4)3
_chemical_formula_sum   'Li2 Ni8 P6 O24'
_cell_volume   404.62770961
_cell_formula_units_Z   2
loop_
 _symmetry_equiv_pos_site_id
 _symmetry_equiv_pos_as_xyz
  1  'x, y, z'
loop_
 _atom_site_type_symbol
 _atom_site_label
 _atom_site_symmetry_multiplicity
 _atom_site_fract_x
 _atom_site_fract_y
 _atom_site_fract_z
 _atom_site_occupancy
  Li  Li0  1  0.500000  0.499999  0.000000  1
  Li  Li1  1  0.250001  0.749999  0.500000  1
  O  O2  1  0.308412  0.093933  0.381881  1
  O  O3  1  0.204373  0.915334  0.708136  1
  O  O4  1  0.545627  0.873470  0.791864  1
  O  O5  1  0.084666  0.912509  0.291864  1
  O  O6  1  0.843933  0.558412  0.881882  1
  O  O7  1  0.906067  0.690294  0.618119  1
  O  O8  1  0.274186  0.559706  0.881882  1
  O  O9  1  0.475815  0.691587  0.618119  1
  O  O10  1  0.905016  0.152368  0.086042  1
  O  O11  1  0.440294  0.156067  0.118119  1
  O  O12  1  0.847633  0.991059  0.913957  1
  O  O13  1  0.741058  0.097632  0.413958  1
  O  O14  1  0.126531  0.337492  0.208136  1
  O  O15  1  0.902369  0.155016  0.586042  1
  O  O16  1  0.511590  0.258942  0.586042  1
  O  O17  1  0.238409  0.094983  0.913958  1
  O  O18  1  0.665335  0.454372  0.208136  1
  O  O19  1  0.844984  0.488409  0.413958  1
  O  O20  1  0.623470  0.795628  0.291864  1
  O  O21  1  0.662508  0.334666  0.791865  1
  O  O22  1  0.087491  0.376530  0.708136  1
  O  O23  1  0.441588  0.725815  0.118118  1
  O  O24  1  0.008941  0.761590  0.086043  1
  O  O25  1  0.309706  0.524185  0.381881  1
  P  P26  1  0.375001  0.773997  0.750000  1
  P  P27  1  0.875000  0.476003  0.750000  1
  P  P28  1  0.523996  0.624999  0.250000  1
  P  P29  1  0.750000  0.250000  0.500000  1
  P  P30  1  0.226004  0.125000  0.250000  1
  P  P31  1  0.000000  0.000000  0.000000  1
  Ni  Ni32  1  0.630454  0.125000  0.250000  1
  Ni  Ni33  1  0.522645  0.022645  0.954710  1
  Ni  Ni34  1  0.227355  0.227355  0.545289  1
  Ni  Ni35  1  0.977355  0.477355  0.045289  1
  Ni  Ni36  1  0.375000  0.369547  0.750000  1
  Ni  Ni37  1  0.119546  0.624999  0.250000  1
  Ni  Ni38  1  0.772645  0.772644  0.454711  1
  Ni  Ni39  1  0.875000  0.880454  0.750000  1
