# generated using pymatgen
data_LiMo2P3O13
_symmetry_space_group_name_H-M   'P 1'
_cell_length_a   6.49792603
_cell_length_b   7.61722444
_cell_length_c   11.39694466
_cell_angle_alpha   76.24319890
_cell_angle_beta   86.52553013
_cell_angle_gamma   80.02057092
_symmetry_Int_Tables_number   1
_chemical_formula_structural   LiMo2P3O13
_chemical_formula_sum   'Li2 Mo4 P6 O26'
_cell_volume   539.52203822
_cell_formula_units_Z   2
loop_
 _symmetry_equiv_pos_site_id
 _symmetry_equiv_pos_as_xyz
  1  'x, y, z'
loop_
 _atom_site_type_symbol
 _atom_site_label
 _atom_site_symmetry_multiplicity
 _atom_site_fract_x
 _atom_site_fract_y
 _atom_site_fract_z
 _atom_site_occupancy
  Li  Li0  1  0.196234  0.568658  0.815695  1
  Li  Li1  1  0.803767  0.431341  0.184306  1
  O  O2  1  0.214775  0.367464  0.961748  1
  O  O3  1  0.920086  0.218404  0.574005  1
  O  O4  1  0.890799  0.541579  0.334920  1
  O  O5  1  0.775137  0.896509  0.216529  1
  O  O6  1  0.131301  0.371039  0.209830  1
  O  O7  1  0.079914  0.781594  0.425996  1
  O  O8  1  0.109201  0.458421  0.665080  1
  O  O9  1  0.224864  0.103491  0.783472  1
  O  O10  1  0.104705  0.801019  0.887589  1
  O  O11  1  0.242499  0.355317  0.423451  1
  O  O12  1  0.244243  0.640242  0.257700  1
  O  O13  1  0.868700  0.628960  0.790170  1
  O  O14  1  0.257387  0.988416  0.008102  1
  O  O15  1  0.241240  0.978589  0.245338  1
  O  O16  1  0.303487  0.986084  0.572526  1
  O  O17  1  0.522376  0.191548  0.128277  1
  O  O18  1  0.527124  0.266881  0.606018  1
  O  O19  1  0.895294  0.198981  0.112411  1
  O  O20  1  0.477625  0.808452  0.871723  1
  O  O21  1  0.696515  0.013915  0.427474  1
  O  O22  1  0.758762  0.021410  0.754662  1
  O  O23  1  0.742612  0.011584  0.991898  1
  O  O24  1  0.785225  0.632536  0.038252  1
  O  O25  1  0.755756  0.359758  0.742299  1
  O  O26  1  0.757501  0.644684  0.576549  1
  O  O27  1  0.472876  0.733119  0.393983  1
  P  P28  1  0.878372  0.530236  0.687025  1
  P  P29  1  0.738585  0.206229  0.666735  1
  P  P30  1  0.733983  0.068145  0.113157  1
  P  P31  1  0.266018  0.931855  0.886844  1
  P  P32  1  0.121628  0.469764  0.312975  1
  P  P33  1  0.261414  0.793771  0.333265  1
  Mo  Mo34  1  0.215632  0.198378  0.093539  1
  Mo  Mo35  1  0.237941  0.199855  0.597215  1
  Mo  Mo36  1  0.762058  0.800145  0.402785  1
  Mo  Mo37  1  0.784367  0.801623  0.906460  1
