# generated using pymatgen
data_Cr(PO3)4
_symmetry_space_group_name_H-M   'P 1'
_cell_length_a   7.01677611
_cell_length_b   9.49338523
_cell_length_c   7.01677629
_cell_angle_alpha   88.52600795
_cell_angle_beta   71.15553811
_cell_angle_gamma   91.47398832
_symmetry_Int_Tables_number   1
_chemical_formula_structural   Cr(PO3)4
_chemical_formula_sum   'Cr2 P8 O24'
_cell_volume   441.92207519
_cell_formula_units_Z   2
loop_
 _symmetry_equiv_pos_site_id
 _symmetry_equiv_pos_as_xyz
  1  'x, y, z'
loop_
 _atom_site_type_symbol
 _atom_site_label
 _atom_site_symmetry_multiplicity
 _atom_site_fract_x
 _atom_site_fract_y
 _atom_site_fract_z
 _atom_site_occupancy
  Cr  Cr0  1  0.891599  0.250000  0.391599  1
  Cr  Cr1  1  0.108401  0.750000  0.608401  1
  P  P2  1  0.276737  0.028862  0.297835  1
  P  P3  1  0.723512  0.033091  0.132553  1
  P  P4  1  0.276488  0.966909  0.867447  1
  P  P5  1  0.202165  0.528862  0.223263  1
  P  P6  1  0.723263  0.971138  0.702165  1
  P  P7  1  0.367447  0.533091  0.776488  1
  P  P8  1  0.797835  0.471138  0.776737  1
  P  P9  1  0.632553  0.466909  0.223512  1
  O  O10  1  0.231170  0.969688  0.104786  1
  O  O11  1  0.115102  0.645022  0.361623  1
  O  O12  1  0.138377  0.145022  0.384898  1
  O  O13  1  0.861623  0.854978  0.615102  1
  O  O14  1  0.342527  0.645652  0.628961  1
  O  O15  1  0.884898  0.354978  0.638377  1
  O  O16  1  0.733720  0.892778  0.229026  1
  O  O17  1  0.657473  0.354348  0.371039  1
  O  O18  1  0.068590  0.403373  0.218232  1
  O  O19  1  0.729026  0.607222  0.233720  1
  O  O20  1  0.395214  0.469688  0.268830  1
  O  O21  1  0.768830  0.030312  0.895214  1
  O  O22  1  0.604786  0.530312  0.731170  1
  O  O23  1  0.266280  0.107222  0.770974  1
  O  O24  1  0.499984  0.902073  0.793392  1
  O  O25  1  0.281768  0.903373  0.431410  1
  O  O26  1  0.706608  0.402073  0.000016  1
  O  O27  1  0.293392  0.597927  -0.000016  1
  O  O28  1  0.128961  0.854348  0.842527  1
  O  O29  1  0.500016  0.097927  0.206608  1
  O  O30  1  0.270974  0.392778  0.766280  1
  O  O31  1  0.931410  0.596627  0.781768  1
  O  O32  1  0.718232  0.096627  0.568590  1
  O  O33  1  0.871039  0.145652  0.157473  1
