# generated using pymatgen
data_Bi2(PO4)3
_symmetry_space_group_name_H-M   'P 1'
_cell_length_a   8.76163345
_cell_length_b   9.24782269
_cell_length_c   12.54720330
_cell_angle_alpha   90.00000000
_cell_angle_beta   89.18398955
_cell_angle_gamma   90.00000000
_symmetry_Int_Tables_number   1
_chemical_formula_structural   Bi2(PO4)3
_chemical_formula_sum   'Bi8 P12 O48'
_cell_volume   1016.54699879
_cell_formula_units_Z   4
loop_
 _symmetry_equiv_pos_site_id
 _symmetry_equiv_pos_as_xyz
  1  'x, y, z'
loop_
 _atom_site_type_symbol
 _atom_site_label
 _atom_site_symmetry_multiplicity
 _atom_site_fract_x
 _atom_site_fract_y
 _atom_site_fract_z
 _atom_site_occupancy
  Bi  Bi0  1  0.746223  0.033504  0.388601  1
  Bi  Bi1  1  0.253777  0.966496  0.611399  1
  Bi  Bi2  1  0.746666  0.463796  0.611791  1
  Bi  Bi3  1  0.253334  0.536204  0.388209  1
  Bi  Bi4  1  0.753777  0.533504  0.111399  1
  Bi  Bi5  1  0.753334  0.963796  0.888209  1
  Bi  Bi6  1  0.246223  0.466496  0.888601  1
  Bi  Bi7  1  0.246666  0.036204  0.111791  1
  P  P8  1  0.045740  0.252314  0.505876  1
  P  P9  1  0.894258  0.622835  0.837275  1
  P  P10  1  0.454260  0.752314  0.994124  1
  P  P11  1  0.615893  0.391719  0.352335  1
  P  P12  1  0.605742  0.122835  0.662725  1
  P  P13  1  0.115893  0.108281  0.852335  1
  P  P14  1  0.384108  0.608281  0.647665  1
  P  P15  1  0.954260  0.747686  0.494124  1
  P  P16  1  0.545740  0.247686  0.005876  1
  P  P17  1  0.394258  0.877165  0.337275  1
  P  P18  1  0.884107  0.891719  0.147665  1
  P  P19  1  0.105742  0.377165  0.162725  1
  O  O20  1  0.768703  0.947860  0.063364  1
  O  O21  1  0.162128  0.260736  0.813816  1
  O  O22  1  0.386395  0.503111  0.742270  1
  O  O23  1  0.090742  0.363798  0.417679  1
  O  O24  1  0.337872  0.760736  0.686184  1
  O  O25  1  0.268703  0.552140  0.563364  1
  O  O26  1  0.119392  0.212452  0.191624  1
  O  O27  1  0.450678  0.387401  0.401740  1
  O  O28  1  0.049322  0.887401  0.098260  1
  O  O29  1  0.549322  0.612599  0.598260  1
  O  O30  1  0.447597  0.181545  0.098623  1
  O  O31  1  0.409258  0.863798  0.082321  1
  O  O32  1  0.126782  0.393437  0.042013  1
  O  O33  1  0.373218  0.893437  0.457987  1
  O  O34  1  0.837872  0.739264  0.186184  1
  O  O35  1  0.692640  0.306587  0.057210  1
  O  O36  1  0.662128  0.239264  0.313816  1
  O  O37  1  0.444189  0.075347  0.700092  1
  O  O38  1  0.055811  0.575347  0.799908  1
  O  O39  1  0.807360  0.806587  0.442790  1
  O  O40  1  0.380608  0.712452  0.308376  1
  O  O41  1  0.731297  0.447860  0.436636  1
  O  O42  1  0.464855  0.369577  0.946002  1
  O  O43  1  0.535145  0.630423  0.053998  1
  O  O44  1  0.035145  0.869577  0.553998  1
  O  O45  1  0.113605  0.003111  0.757730  1
  O  O46  1  0.613605  0.496889  0.257730  1
  O  O47  1  0.552403  0.818455  0.901377  1
  O  O48  1  0.231297  0.052140  0.936636  1
  O  O49  1  0.728643  0.030071  0.720589  1
  O  O50  1  0.950678  0.112599  0.901740  1
  O  O51  1  0.873218  0.606563  0.957987  1
  O  O52  1  0.909258  0.636202  0.582321  1
  O  O53  1  0.555811  0.924653  0.299908  1
  O  O54  1  0.307360  0.693413  0.942790  1
  O  O55  1  0.052403  0.681545  0.401377  1
  O  O56  1  0.271357  0.969929  0.279411  1
  O  O57  1  0.619392  0.287548  0.691624  1
  O  O58  1  0.626782  0.106563  0.542013  1
  O  O59  1  0.771357  0.530071  0.779411  1
  O  O60  1  0.944189  0.424653  0.200092  1
  O  O61  1  0.192640  0.193413  0.557210  1
  O  O62  1  0.947597  0.318455  0.598623  1
  O  O63  1  0.880608  0.787548  0.808376  1
  O  O64  1  0.590742  0.136202  0.917679  1
  O  O65  1  0.228643  0.469929  0.220589  1
  O  O66  1  0.964855  0.130423  0.446002  1
  O  O67  1  0.886395  0.996889  0.242270  1
