# generated using pymatgen
data_Li2FeP2O7
_symmetry_space_group_name_H-M   'P 1'
_cell_length_a   7.57918822
_cell_length_b   7.57918812
_cell_length_c   11.15506254
_cell_angle_alpha   89.63082571
_cell_angle_beta   90.36917432
_cell_angle_gamma   64.12046517
_symmetry_Int_Tables_number   1
_chemical_formula_structural   Li2FeP2O7
_chemical_formula_sum   'Li8 Fe4 P8 O28'
_cell_volume   576.48729907
_cell_formula_units_Z   4
loop_
 _symmetry_equiv_pos_site_id
 _symmetry_equiv_pos_as_xyz
  1  'x, y, z'
loop_
 _atom_site_type_symbol
 _atom_site_label
 _atom_site_symmetry_multiplicity
 _atom_site_fract_x
 _atom_site_fract_y
 _atom_site_fract_z
 _atom_site_occupancy
  Fe  Fe0  1  0.306157  0.694516  0.879930  1
  Fe  Fe1  1  0.305484  0.693843  0.379930  1
  Fe  Fe2  1  0.694516  0.306157  0.620070  1
  Fe  Fe3  1  0.693843  0.305484  0.120070  1
  Li  Li4  1  0.282981  0.286613  0.999794  1
  Li  Li5  1  0.713387  0.717019  0.499794  1
  Li  Li6  1  0.284756  0.284756  0.750000  1
  Li  Li7  1  0.712911  0.712911  0.750000  1
  Li  Li8  1  0.287089  0.287089  0.250000  1
  Li  Li9  1  0.715244  0.715244  0.250000  1
  Li  Li10  1  0.286613  0.282981  0.500206  1
  Li  Li11  1  0.717019  0.713387  0.000206  1
  O  O12  1  0.101082  0.895837  0.626258  1
  O  O13  1  0.104163  0.898918  0.126258  1
  O  O14  1  0.419084  0.801060  0.743483  1
  O  O15  1  0.422231  0.799163  0.515460  1
  O  O16  1  0.198853  0.578305  0.745032  1
  O  O17  1  0.198940  0.580916  0.243483  1
  O  O18  1  0.200837  0.577769  0.015460  1
  O  O19  1  0.421695  0.801147  0.245032  1
  O  O20  1  0.205023  0.573306  0.516907  1
  O  O21  1  0.426694  0.794977  0.016907  1
  O  O22  1  0.731720  0.876441  0.874017  1
  O  O23  1  0.123559  0.268280  0.374017  1
  O  O24  1  0.125266  0.259540  0.874298  1
  O  O25  1  0.740460  0.874734  0.374298  1
  O  O26  1  0.259540  0.125266  0.625702  1
  O  O27  1  0.874734  0.740460  0.125702  1
  O  O28  1  0.876441  0.731720  0.625983  1
  O  O29  1  0.268280  0.123559  0.125983  1
  O  O30  1  0.573306  0.205023  0.983093  1
  O  O31  1  0.794977  0.426694  0.483093  1
  O  O32  1  0.578305  0.198853  0.754968  1
  O  O33  1  0.799163  0.422231  0.984540  1
  O  O34  1  0.801060  0.419084  0.756517  1
  O  O35  1  0.801147  0.421695  0.254968  1
  O  O36  1  0.577769  0.200837  0.484540  1
  O  O37  1  0.580916  0.198940  0.256517  1
  O  O38  1  0.895837  0.101082  0.873742  1
  O  O39  1  0.898918  0.104163  0.373742  1
  P  P40  1  0.310543  0.909873  0.627946  1
  P  P41  1  0.090127  0.689457  0.127946  1
  P  P42  1  0.090968  0.684296  0.628717  1
  P  P43  1  0.315704  0.909032  0.128717  1
  P  P44  1  0.684296  0.090968  0.871283  1
  P  P45  1  0.909032  0.315704  0.371283  1
  P  P46  1  0.909873  0.310543  0.872054  1
  P  P47  1  0.689457  0.090127  0.372054  1
