# generated using pymatgen
data_Li2Fe2(MoO4)3
_symmetry_space_group_name_H-M   'P 1'
_cell_length_a   9.42689635
_cell_length_b   9.69850431
_cell_length_c   13.23739001
_cell_angle_alpha   90.00000000
_cell_angle_beta   90.00000000
_cell_angle_gamma   90.00000000
_symmetry_Int_Tables_number   1
_chemical_formula_structural   Li2Fe2(MoO4)3
_chemical_formula_sum   'Li8 Fe8 Mo12 O48'
_cell_volume   1210.25214120
_cell_formula_units_Z   4
loop_
 _symmetry_equiv_pos_site_id
 _symmetry_equiv_pos_as_xyz
  1  'x, y, z'
loop_
 _atom_site_type_symbol
 _atom_site_label
 _atom_site_symmetry_multiplicity
 _atom_site_fract_x
 _atom_site_fract_y
 _atom_site_fract_z
 _atom_site_occupancy
  Li  Li0  1  0.731363  0.279739  0.690307  1
  Li  Li1  1  0.231363  0.220261  0.809693  1
  Li  Li2  1  0.768637  0.279739  0.309693  1
  Li  Li3  1  0.268637  0.220261  0.190307  1
  Li  Li4  1  0.268637  0.720261  0.309693  1
  Li  Li5  1  0.768637  0.779739  0.190307  1
  Li  Li6  1  0.231363  0.720261  0.690307  1
  Li  Li7  1  0.731363  0.779739  0.809693  1
  O  O8  1  0.725736  0.175432  0.820818  1
  O  O9  1  0.225736  0.324568  0.679182  1
  O  O10  1  0.774264  0.175432  0.179182  1
  O  O11  1  0.274264  0.324568  0.320818  1
  O  O12  1  0.274264  0.824568  0.179182  1
  O  O13  1  0.774264  0.675432  0.320818  1
  O  O14  1  0.225736  0.824568  0.820818  1
  O  O15  1  0.725736  0.675432  0.679182  1
  O  O16  1  0.929613  0.141325  0.984993  1
  O  O17  1  0.429613  0.358675  0.515007  1
  O  O18  1  0.570387  0.141325  0.015007  1
  O  O19  1  0.070387  0.358675  0.484993  1
  O  O20  1  0.070387  0.858675  0.015007  1
  O  O21  1  0.570387  0.641325  0.484993  1
  O  O22  1  0.429613  0.858675  0.984993  1
  O  O23  1  0.929613  0.641325  0.515007  1
  O  O24  1  0.625970  0.436071  0.936271  1
  O  O25  1  0.125970  0.063929  0.563729  1
  O  O26  1  0.874030  0.436071  0.063729  1
  O  O27  1  0.374030  0.063929  0.436271  1
  O  O28  1  0.374030  0.563929  0.063729  1
  O  O29  1  0.874030  0.936071  0.436271  1
  O  O30  1  0.125970  0.563929  0.936271  1
  O  O31  1  0.625970  0.936071  0.563729  1
  O  O32  1  0.032393  0.170484  0.780267  1
  O  O33  1  0.532393  0.329516  0.719733  1
  O  O34  1  0.467607  0.170484  0.219733  1
  O  O35  1  0.967607  0.329516  0.280267  1
  O  O36  1  0.967607  0.829516  0.219733  1
  O  O37  1  0.467607  0.670484  0.280267  1
  O  O38  1  0.532393  0.829516  0.780267  1
  O  O39  1  0.032393  0.670484  0.719733  1
  O  O40  1  0.835452  0.152918  0.593299  1
  O  O41  1  0.335452  0.347082  0.906701  1
  O  O42  1  0.664548  0.152918  0.406701  1
  O  O43  1  0.164548  0.347082  0.093299  1
  O  O44  1  0.164548  0.847082  0.406701  1
  O  O45  1  0.664548  0.652918  0.093299  1
  O  O46  1  0.335452  0.847082  0.593299  1
  O  O47  1  0.835452  0.652918  0.906701  1
  O  O48  1  0.885849  0.414647  0.661650  1
  O  O49  1  0.385849  0.085353  0.838350  1
  O  O50  1  0.614151  0.414647  0.338350  1
  O  O51  1  0.114151  0.085353  0.161650  1
  O  O52  1  0.114151  0.585353  0.338350  1
  O  O53  1  0.614151  0.914647  0.161650  1
  O  O54  1  0.385849  0.585353  0.661650  1
  O  O55  1  0.885849  0.914647  0.838350  1
  Fe  Fe56  1  0.532949  0.253342  0.879107  1
  Fe  Fe57  1  0.032949  0.246658  0.620893  1
  Fe  Fe58  1  0.967051  0.253342  0.120893  1
  Fe  Fe59  1  0.467051  0.246658  0.379107  1
  Fe  Fe60  1  0.467051  0.746658  0.120893  1
  Fe  Fe61  1  0.967051  0.753342  0.379107  1
  Fe  Fe62  1  0.032949  0.746658  0.879107  1
  Fe  Fe63  1  0.532949  0.753342  0.620893  1
  Mo  Mo64  1  0.893377  0.099128  0.857433  1
  Mo  Mo65  1  0.393377  0.400872  0.642567  1
  Mo  Mo66  1  0.606623  0.099128  0.142567  1
  Mo  Mo67  1  0.106623  0.400872  0.357433  1
  Mo  Mo68  1  0.106623  0.900872  0.142567  1
  Mo  Mo69  1  0.606623  0.599128  0.357433  1
  Mo  Mo70  1  0.393377  0.900872  0.857433  1
  Mo  Mo71  1  0.893377  0.599128  0.642567  1
  Mo  Mo72  1  0.750000  0.041788  0.500000  1
  Mo  Mo73  1  0.250000  0.458212  0.000000  1
  Mo  Mo74  1  0.250000  0.958212  0.500000  1
  Mo  Mo75  1  0.750000  0.541788  0.000000  1
