# generated using pymatgen
data_LiSnPO4
_symmetry_space_group_name_H-M   'P 1'
_cell_length_a   5.76461642
_cell_length_b   10.00288179
_cell_length_c   7.68781178
_cell_angle_alpha   90.00000000
_cell_angle_beta   82.44392740
_cell_angle_gamma   90.00000000
_symmetry_Int_Tables_number   1
_chemical_formula_structural   LiSnPO4
_chemical_formula_sum   'Li4 Sn4 P4 O16'
_cell_volume   439.45123809
_cell_formula_units_Z   4
loop_
 _symmetry_equiv_pos_site_id
 _symmetry_equiv_pos_as_xyz
  1  'x, y, z'
loop_
 _atom_site_type_symbol
 _atom_site_label
 _atom_site_symmetry_multiplicity
 _atom_site_fract_x
 _atom_site_fract_y
 _atom_site_fract_z
 _atom_site_occupancy
  Li  Li0  1  0.706754  0.165688  0.501992  1
  Li  Li1  1  0.793246  0.665688  -0.001992  1
  Li  Li2  1  0.206754  0.334312  1.001992  1
  Li  Li3  1  0.293246  0.834312  0.498008  1
  Sn  Sn4  1  0.743890  0.144509  1.011254  1
  Sn  Sn5  1  0.756110  0.644509  0.488746  1
  Sn  Sn6  1  0.243890  0.355491  0.511254  1
  Sn  Sn7  1  0.256110  0.855491  -0.011254  1
  P  P8  1  0.664026  0.408445  0.223607  1
  P  P9  1  0.164026  0.091555  0.723607  1
  P  P10  1  0.335974  0.591555  0.776393  1
  P  P11  1  0.835974  0.908445  0.276393  1
  O  O12  1  0.438903  0.371739  0.150074  1
  O  O13  1  0.374314  0.168892  0.620001  1
  O  O14  1  0.221989  0.939130  0.721109  1
  O  O15  1  0.633140  0.364277  0.423836  1
  O  O16  1  0.721989  0.560870  0.221109  1
  O  O17  1  0.874314  0.331108  0.120001  1
  O  O18  1  0.061097  0.871739  0.349926  1
  O  O19  1  0.366860  0.635723  0.576164  1
  O  O20  1  0.133140  0.135723  0.923836  1
  O  O21  1  0.866860  0.864277  0.076164  1
  O  O22  1  0.625686  0.831108  0.379999  1
  O  O23  1  0.125686  0.668892  0.879999  1
  O  O24  1  0.778011  0.060870  0.278891  1
  O  O25  1  0.561097  0.628261  0.849926  1
  O  O26  1  0.938903  0.128261  0.650074  1
  O  O27  1  0.278011  0.439130  0.778891  1
