# generated using pymatgen
data_Ti3(BiO3)4
_symmetry_space_group_name_H-M   'P 1'
_cell_length_a   5.46450626
_cell_length_b   5.51988536
_cell_length_c   16.89686059
_cell_angle_alpha   99.39748453
_cell_angle_beta   90.00000000
_cell_angle_gamma   90.00000000
_symmetry_Int_Tables_number   1
_chemical_formula_structural   Ti3(BiO3)4
_chemical_formula_sum   'Ti6 Bi8 O24'
_cell_volume   502.82749768
_cell_formula_units_Z   2
loop_
 _symmetry_equiv_pos_site_id
 _symmetry_equiv_pos_as_xyz
  1  'x, y, z'
loop_
 _atom_site_type_symbol
 _atom_site_label
 _atom_site_symmetry_multiplicity
 _atom_site_fract_x
 _atom_site_fract_y
 _atom_site_fract_z
 _atom_site_occupancy
  Ti  Ti0  1  0.996781  0.584477  0.255832  1
  Ti  Ti1  1  -0.000016  0.465401  0.999987  1
  Ti  Ti2  1  0.500016  0.965401  0.999987  1
  Ti  Ti3  1  0.503219  0.084477  0.255832  1
  Ti  Ti4  1  0.003188  0.328708  0.744185  1
  Ti  Ti5  1  0.496812  0.828708  0.744185  1
  Bi  Bi6  1  0.503078  0.439666  0.867483  1
  Bi  Bi7  1  0.025020  0.226353  0.423029  1
  Bi  Bi8  1  0.525008  0.303279  0.576998  1
  Bi  Bi9  1  0.996922  0.939666  0.867483  1
  Bi  Bi10  1  0.474980  0.726353  0.423029  1
  Bi  Bi11  1  0.974992  0.803279  0.576998  1
  Bi  Bi12  1  0.496828  0.572240  0.132507  1
  Bi  Bi13  1  0.003172  0.072240  0.132507  1
  O  O14  1  0.222611  0.821519  0.219586  1
  O  O15  1  0.752283  0.170427  0.979106  1
  O  O16  1  0.077657  0.354880  0.883774  1
  O  O17  1  0.577661  0.971069  0.116206  1
  O  O18  1  0.756620  0.494967  0.498186  1
  O  O19  1  0.562740  0.768910  0.639755  1
  O  O20  1  0.277389  0.321519  0.219586  1
  O  O21  1  0.422343  0.854880  0.883774  1
  O  O22  1  0.252371  0.691212  0.020878  1
  O  O23  1  0.297841  0.518055  0.751022  1
  O  O24  1  0.202159  0.018055  0.751022  1
  O  O25  1  0.247629  0.191212  0.020878  1
  O  O26  1  0.743380  0.994967  0.498186  1
  O  O27  1  0.256629  0.496808  0.501848  1
  O  O28  1  0.747717  0.670427  0.979106  1
  O  O29  1  0.722540  0.102064  0.780408  1
  O  O30  1  0.437270  0.128938  0.360242  1
  O  O31  1  0.777460  0.602064  0.780408  1
  O  O32  1  0.797715  0.267228  0.248969  1
  O  O33  1  0.937260  0.268910  0.639755  1
  O  O34  1  0.062730  0.628938  0.360242  1
  O  O35  1  0.243371  0.996808  0.501848  1
  O  O36  1  0.922339  0.471069  0.116206  1
  O  O37  1  0.702285  0.767228  0.248969  1
