# generated using pymatgen
data_LiFeP2O7
_symmetry_space_group_name_H-M   'P 1'
_cell_length_a   6.81214530
_cell_length_b   8.19294273
_cell_length_c   9.41498952
_cell_angle_alpha   90.00000000
_cell_angle_beta   107.55972615
_cell_angle_gamma   90.00000000
_symmetry_Int_Tables_number   1
_chemical_formula_structural   LiFeP2O7
_chemical_formula_sum   'Li4 Fe4 P8 O28'
_cell_volume   500.97974109
_cell_formula_units_Z   4
loop_
 _symmetry_equiv_pos_site_id
 _symmetry_equiv_pos_as_xyz
  1  'x, y, z'
loop_
 _atom_site_type_symbol
 _atom_site_label
 _atom_site_symmetry_multiplicity
 _atom_site_fract_x
 _atom_site_fract_y
 _atom_site_fract_z
 _atom_site_occupancy
  Li  Li0  1  0.220340  0.891238  0.547453  1
  Li  Li1  1  0.779661  0.108762  0.452546  1
  Li  Li2  1  0.779660  0.391239  0.952547  1
  Li  Li3  1  0.220340  0.608762  0.047453  1
  O  O4  1  0.394787  0.087868  0.633879  1
  O  O5  1  0.928190  0.672813  0.392468  1
  O  O6  1  0.854943  0.938709  0.156579  1
  O  O7  1  0.907347  0.586260  0.124673  1
  O  O8  1  0.092653  0.413740  0.875327  1
  O  O9  1  0.145058  0.061292  0.843422  1
  O  O10  1  0.071809  0.327188  0.607532  1
  O  O11  1  0.229408  0.606197  0.715254  1
  O  O12  1  0.092654  0.086259  0.375328  1
  O  O13  1  0.145058  0.438709  0.343421  1
  O  O14  1  0.071810  0.172813  0.107533  1
  O  O15  1  0.394786  0.412133  0.133879  1
  O  O16  1  0.513657  0.233323  0.890677  1
  O  O17  1  0.229409  0.893804  0.215255  1
  O  O18  1  0.526907  0.921572  0.865964  1
  O  O19  1  0.907347  0.913740  0.624673  1
  O  O20  1  0.486342  0.733324  0.609322  1
  O  O21  1  0.605215  0.587867  0.866121  1
  O  O22  1  0.770591  0.393803  0.284746  1
  O  O23  1  0.513658  0.266677  0.390678  1
  O  O24  1  0.526908  0.578428  0.365964  1
  O  O25  1  0.473092  0.078429  0.134036  1
  O  O26  1  0.770592  0.106197  0.784746  1
  O  O27  1  0.486342  0.766677  0.109322  1
  O  O28  1  0.605214  0.912133  0.366121  1
  O  O29  1  0.928191  0.827188  0.892468  1
  O  O30  1  0.854942  0.561291  0.656578  1
  O  O31  1  0.473093  0.421571  0.634037  1
  P  P32  1  0.537899  0.086217  0.795660  1
  P  P33  1  0.462101  0.913783  0.204340  1
  P  P34  1  0.537899  0.413783  0.295659  1
  P  P35  1  0.944791  0.967092  0.789204  1
  P  P36  1  0.055208  0.467092  0.710796  1
  P  P37  1  0.055208  0.032907  0.210795  1
  P  P38  1  0.462102  0.586218  0.704340  1
  P  P39  1  0.944791  0.532908  0.289204  1
  Fe  Fe40  1  0.719220  0.775573  0.004399  1
  Fe  Fe41  1  0.719219  0.724426  0.504398  1
  Fe  Fe42  1  0.280780  0.275573  0.495602  1
  Fe  Fe43  1  0.280781  0.224426  0.995602  1
