# generated using pymatgen
data_LiSn(PO3)4
_symmetry_space_group_name_H-M   'P 1'
_cell_length_a   13.16651897
_cell_length_b   8.38828676
_cell_length_c   9.94393159
_cell_angle_alpha   90.00000000
_cell_angle_beta   90.00000000
_cell_angle_gamma   90.00000000
_symmetry_Int_Tables_number   1
_chemical_formula_structural   LiSn(PO3)4
_chemical_formula_sum   'Li4 Sn4 P16 O48'
_cell_volume   1098.25291794
_cell_formula_units_Z   4
loop_
 _symmetry_equiv_pos_site_id
 _symmetry_equiv_pos_as_xyz
  1  'x, y, z'
loop_
 _atom_site_type_symbol
 _atom_site_label
 _atom_site_symmetry_multiplicity
 _atom_site_fract_x
 _atom_site_fract_y
 _atom_site_fract_z
 _atom_site_occupancy
  Li  Li0  1  0.000000  0.009832  0.250000  1
  Li  Li1  1  0.000000  0.990168  0.750000  1
  Li  Li2  1  0.500000  0.490168  0.750000  1
  Li  Li3  1  0.500000  0.509832  0.250000  1
  O  O4  1  0.062133  0.176163  0.628712  1
  O  O5  1  0.062133  0.823837  0.128712  1
  O  O6  1  0.081160  0.446305  0.116894  1
  O  O7  1  0.081160  0.553695  0.616894  1
  O  O8  1  0.095126  0.097580  0.379722  1
  O  O9  1  0.095126  0.902420  0.879722  1
  O  O10  1  0.139849  0.381087  0.877063  1
  O  O11  1  0.139849  0.618913  0.377063  1
  O  O12  1  0.176467  0.345747  0.475860  1
  O  O13  1  0.176467  0.654253  0.975860  1
  O  O14  1  0.232158  0.081834  0.565104  1
  O  O15  1  0.232158  0.918166  0.065104  1
  O  O16  1  0.267842  0.418166  0.065104  1
  O  O17  1  0.267842  0.581834  0.565104  1
  O  O18  1  0.323533  0.154253  0.975860  1
  O  O19  1  0.323533  0.845747  0.475860  1
  O  O20  1  0.360151  0.118913  0.377063  1
  O  O21  1  0.360151  0.881087  0.877063  1
  O  O22  1  0.404874  0.402420  0.879722  1
  O  O23  1  0.404874  0.597580  0.379722  1
  O  O24  1  0.418840  0.053695  0.616894  1
  O  O25  1  0.418840  0.946305  0.116894  1
  O  O26  1  0.437867  0.323837  0.128712  1
  O  O27  1  0.437867  0.676163  0.628712  1
  O  O28  1  0.562133  0.323837  0.371288  1
  O  O29  1  0.562133  0.676163  0.871288  1
  O  O30  1  0.581160  0.053695  0.883106  1
  O  O31  1  0.581160  0.946305  0.383106  1
  O  O32  1  0.595126  0.402420  0.620278  1
  O  O33  1  0.595126  0.597580  0.120278  1
  O  O34  1  0.639849  0.118913  0.122937  1
  O  O35  1  0.639849  0.881087  0.622937  1
  O  O36  1  0.676467  0.154253  0.524140  1
  O  O37  1  0.676467  0.845747  0.024140  1
  O  O38  1  0.732158  0.418166  0.434896  1
  O  O39  1  0.732158  0.581834  0.934896  1
  O  O40  1  0.767842  0.081834  0.934896  1
  O  O41  1  0.767842  0.918166  0.434896  1
  O  O42  1  0.823533  0.345747  0.024140  1
  O  O43  1  0.823533  0.654253  0.524140  1
  O  O44  1  0.860151  0.381087  0.622937  1
  O  O45  1  0.860151  0.618913  0.122937  1
  O  O46  1  0.904874  0.097580  0.120278  1
  O  O47  1  0.904874  0.902420  0.620278  1
  O  O48  1  0.918840  0.446305  0.383106  1
  O  O49  1  0.918840  0.553695  0.883106  1
  O  O50  1  0.937867  0.176163  0.871288  1
  O  O51  1  0.937867  0.823837  0.371288  1
  P  P52  1  0.132003  0.169801  0.506090  1
  P  P53  1  0.132003  0.830199  0.006090  1
  P  P54  1  0.159403  0.469204  0.007046  1
  P  P55  1  0.159403  0.530796  0.507046  1
  P  P56  1  0.340597  0.030796  0.507046  1
  P  P57  1  0.340597  0.969204  0.007046  1
  P  P58  1  0.367997  0.330199  0.006090  1
  P  P59  1  0.367997  0.669801  0.506090  1
  P  P60  1  0.632003  0.330199  0.493910  1
  P  P61  1  0.632003  0.669801  0.993910  1
  P  P62  1  0.659403  0.030796  0.992954  1
  P  P63  1  0.659403  0.969204  0.492954  1
  P  P64  1  0.840597  0.469204  0.492954  1
  P  P65  1  0.840597  0.530796  0.992954  1
  P  P66  1  0.867997  0.169801  0.993910  1
  P  P67  1  0.867997  0.830199  0.493910  1
  Sn  Sn68  1  0.000000  0.381112  0.750000  1
  Sn  Sn69  1  0.000000  0.618888  0.250000  1
  Sn  Sn70  1  0.500000  0.118888  0.250000  1
  Sn  Sn71  1  0.500000  0.881112  0.750000  1
