# generated using pymatgen
data_Fe2(MoO4)3
_symmetry_space_group_name_H-M   'P 1'
_cell_length_a   9.25602421
_cell_length_b   9.34335122
_cell_length_c   12.86815491
_cell_angle_alpha   90.00000000
_cell_angle_beta   90.00000000
_cell_angle_gamma   90.00000000
_symmetry_Int_Tables_number   1
_chemical_formula_structural   Fe2(MoO4)3
_chemical_formula_sum   'Fe8 Mo12 O48'
_cell_volume   1112.86744157
_cell_formula_units_Z   4
loop_
 _symmetry_equiv_pos_site_id
 _symmetry_equiv_pos_as_xyz
  1  'x, y, z'
loop_
 _atom_site_type_symbol
 _atom_site_label
 _atom_site_symmetry_multiplicity
 _atom_site_fract_x
 _atom_site_fract_y
 _atom_site_fract_z
 _atom_site_occupancy
  O  O0  1  0.862310  0.303514  0.168980  1
  O  O1  1  0.862310  0.196486  0.831020  1
  O  O2  1  0.637690  0.803514  0.331020  1
  O  O3  1  0.637690  0.696486  0.668980  1
  O  O4  1  0.137690  0.696486  0.831020  1
  O  O5  1  0.137690  0.803514  0.168980  1
  O  O6  1  0.362310  0.196486  0.668980  1
  O  O7  1  0.362310  0.303514  0.331020  1
  O  O8  1  0.819422  0.070001  0.021962  1
  O  O9  1  0.819422  0.429999  0.978038  1
  O  O10  1  0.680578  0.570001  0.478038  1
  O  O11  1  0.680578  0.929999  0.521962  1
  O  O12  1  0.180578  0.929999  0.978038  1
  O  O13  1  0.180578  0.570001  0.021962  1
  O  O14  1  0.319422  0.429999  0.521962  1
  O  O15  1  0.319422  0.070001  0.478038  1
  O  O16  1  0.414502  0.660635  0.906326  1
  O  O17  1  0.585498  0.339365  0.093674  1
  O  O18  1  0.914502  0.839365  0.406326  1
  O  O19  1  0.914502  0.660635  0.593674  1
  O  O20  1  0.088497  0.094766  0.141987  1
  O  O21  1  0.088497  0.405234  0.858013  1
  O  O22  1  0.411503  0.594766  0.358013  1
  O  O23  1  0.411503  0.905234  0.641987  1
  O  O24  1  0.911503  0.905234  0.858013  1
  O  O25  1  0.911503  0.594766  0.141987  1
  O  O26  1  0.588497  0.405234  0.641987  1
  O  O27  1  0.588497  0.094766  0.358013  1
  O  O28  1  0.364501  0.125751  0.070339  1
  O  O29  1  0.364501  0.374249  0.929661  1
  O  O30  1  0.135499  0.625751  0.429661  1
  O  O31  1  0.135499  0.874249  0.570339  1
  O  O32  1  0.635499  0.874249  0.929661  1
  O  O33  1  0.635499  0.625751  0.070339  1
  O  O34  1  0.864501  0.374249  0.570339  1
  O  O35  1  0.864501  0.125751  0.429661  1
  O  O36  1  0.318074  0.003116  0.258361  1
  O  O37  1  0.318074  0.496884  0.741639  1
  O  O38  1  0.181926  0.503116  0.241639  1
  O  O39  1  0.181926  0.996884  0.758361  1
  O  O40  1  0.681926  0.996884  0.741639  1
  O  O41  1  0.681926  0.503116  0.258361  1
  O  O42  1  0.818074  0.496884  0.758361  1
  O  O43  1  0.818074  0.003116  0.241639  1
  O  O44  1  0.085498  0.339365  0.406326  1
  O  O45  1  0.085498  0.160635  0.593674  1
  O  O46  1  0.414502  0.839365  0.093674  1
  O  O47  1  0.585498  0.160635  0.906326  1
  Fe  Fe48  1  0.250132  0.465708  0.381199  1
  Fe  Fe49  1  0.250132  0.034292  0.618801  1
  Fe  Fe50  1  0.249868  0.965708  0.118801  1
  Fe  Fe51  1  0.249868  0.534292  0.881199  1
  Fe  Fe52  1  0.749868  0.534292  0.618801  1
  Fe  Fe53  1  0.749868  0.965708  0.381199  1
  Fe  Fe54  1  0.750132  0.034292  0.881199  1
  Fe  Fe55  1  0.750132  0.465708  0.118801  1
  Mo  Mo56  1  0.973692  0.250000  0.500000  1
  Mo  Mo57  1  0.526308  0.750000  0.000000  1
  Mo  Mo58  1  0.026308  0.750000  0.500000  1
  Mo  Mo59  1  0.473692  0.250000  0.000000  1
  Mo  Mo60  1  0.396004  0.116989  0.355362  1
  Mo  Mo61  1  0.396004  0.383011  0.644638  1
  Mo  Mo62  1  0.103996  0.616989  0.144638  1
  Mo  Mo63  1  0.103996  0.883011  0.855362  1
  Mo  Mo64  1  0.603996  0.883011  0.644638  1
  Mo  Mo65  1  0.603996  0.616989  0.355362  1
  Mo  Mo66  1  0.896004  0.383011  0.855362  1
  Mo  Mo67  1  0.896004  0.116989  0.144638  1
