# generated using pymatgen
data_Li2Bi(PO4)2
_symmetry_space_group_name_H-M   'P 1'
_cell_length_a   8.59387143
_cell_length_b   8.59297517
_cell_length_c   7.87490371
_cell_angle_alpha   90.06598963
_cell_angle_beta   90.01831993
_cell_angle_gamma   60.01467736
_symmetry_Int_Tables_number   1
_chemical_formula_structural   Li2Bi(PO4)2
_chemical_formula_sum   'Li6 Bi3 P6 O24'
_cell_volume   503.70028733
_cell_formula_units_Z   3
loop_
 _symmetry_equiv_pos_site_id
 _symmetry_equiv_pos_as_xyz
  1  'x, y, z'
loop_
 _atom_site_type_symbol
 _atom_site_label
 _atom_site_symmetry_multiplicity
 _atom_site_fract_x
 _atom_site_fract_y
 _atom_site_fract_z
 _atom_site_occupancy
  Li  Li0  1  0.310786  0.022172  0.634620  1
  Li  Li1  1  0.666612  0.665823  0.497528  1
  Li  Li2  1  1.000378  0.000499  0.383355  1
  Li  Li3  1  0.666748  0.310387  0.634204  1
  Li  Li4  1  0.022259  0.666699  0.634979  1
  Li  Li5  1  0.332932  0.333513  0.463426  1
  O  O6  1  0.572556  0.294207  0.413420  1
  O  O7  1  0.883615  0.591324  0.244013  1
  O  O8  1  0.942443  0.854948  0.236065  1
  O  O9  1  0.072575  0.150146  0.771287  1
  O  O10  1  0.086237  0.436133  0.747057  1
  O  O11  1  0.266286  0.156163  0.088048  1
  O  O12  1  0.293202  0.133078  0.414123  1
  O  O13  1  0.133057  0.573440  0.414369  1
  O  O14  1  0.155651  0.578313  0.088247  1
  O  O15  1  0.477436  0.085604  0.747456  1
  O  O16  1  0.150660  0.776681  0.771762  1
  O  O17  1  0.753808  0.822606  0.610367  1
  O  O18  1  0.202779  0.942553  0.234491  1
  O  O19  1  0.436572  0.477271  0.746882  1
  O  O20  1  0.578849  0.266658  0.087098  1
  O  O21  1  0.414408  0.736692  0.932284  1
  O  O22  1  0.421990  0.753997  0.609950  1
  O  O23  1  0.777056  0.072267  0.769894  1
  O  O24  1  0.591301  0.525712  0.243889  1
  O  O25  1  0.854755  0.203210  0.235860  1
  O  O26  1  0.525160  0.884034  0.243584  1
  O  O27  1  0.823596  0.421809  0.610376  1
  O  O28  1  0.849621  0.413696  0.932684  1
  O  O29  1  0.737446  0.849611  0.932592  1
  P  P30  1  0.358246  0.685820  0.757154  1
  P  P31  1  0.648209  0.319735  0.247462  1
  P  P32  1  0.956044  0.357754  0.757250  1
  P  P33  1  0.319147  0.032751  0.247327  1
  P  P34  1  0.685986  0.955613  0.756944  1
  P  P35  1  0.032548  0.648413  0.247995  1
  Bi  Bi36  1  0.999273  1.000107  -0.000561  1
  Bi  Bi37  1  0.666984  0.666868  0.063213  1
  Bi  Bi38  1  0.333474  0.333473  0.938570  1
