# generated using pymatgen
data_V(PO3)4
_symmetry_space_group_name_H-M   'P 1'
_cell_length_a   12.88116824
_cell_length_b   8.41213607
_cell_length_c   9.23645515
_cell_angle_alpha   90.00000000
_cell_angle_beta   90.00000000
_cell_angle_gamma   90.00000000
_symmetry_Int_Tables_number   1
_chemical_formula_structural   V(PO3)4
_chemical_formula_sum   'V4 P16 O48'
_cell_volume   1000.84510002
_cell_formula_units_Z   4
loop_
 _symmetry_equiv_pos_site_id
 _symmetry_equiv_pos_as_xyz
  1  'x, y, z'
loop_
 _atom_site_type_symbol
 _atom_site_label
 _atom_site_symmetry_multiplicity
 _atom_site_fract_x
 _atom_site_fract_y
 _atom_site_fract_z
 _atom_site_occupancy
  O  O0  1  0.072627  0.200515  0.638039  1
  O  O1  1  0.072627  0.799486  0.138038  1
  O  O2  1  0.067563  0.472726  0.133632  1
  O  O3  1  0.067563  0.527275  0.633633  1
  O  O4  1  0.115119  0.094022  0.379159  1
  O  O5  1  0.115119  0.905977  0.879159  1
  O  O6  1  0.116148  0.368964  0.882545  1
  O  O7  1  0.116148  0.631037  0.382544  1
  O  O8  1  0.184413  0.364659  0.465336  1
  O  O9  1  0.184413  0.635342  0.965335  1
  O  O10  1  0.252335  0.118586  0.583215  1
  O  O11  1  0.252335  0.881414  0.083216  1
  O  O12  1  0.247665  0.381413  0.083216  1
  O  O13  1  0.247665  0.618586  0.583215  1
  O  O14  1  0.315587  0.135342  0.965335  1
  O  O15  1  0.315587  0.864658  0.465336  1
  O  O16  1  0.383852  0.131037  0.382544  1
  O  O17  1  0.927373  0.799486  0.361962  1
  O  O18  1  0.384880  0.405978  0.879159  1
  O  O19  1  0.384880  0.594023  0.379159  1
  O  O20  1  0.432437  0.027275  0.633633  1
  O  O21  1  0.432437  0.972726  0.133632  1
  O  O22  1  0.427373  0.299485  0.138038  1
  O  O23  1  0.427373  0.700514  0.638039  1
  O  O24  1  0.572627  0.299485  0.361962  1
  O  O25  1  0.572627  0.700514  0.861962  1
  O  O26  1  0.567563  0.027275  0.866367  1
  O  O27  1  0.567563  0.972726  0.366367  1
  O  O28  1  0.615119  0.405978  0.620840  1
  O  O29  1  0.615119  0.594023  0.120841  1
  O  O30  1  0.616148  0.131037  0.117456  1
  O  O31  1  0.616148  0.868963  0.617456  1
  O  O32  1  0.684413  0.135342  0.534665  1
  O  O33  1  0.684413  0.864658  0.034664  1
  O  O34  1  0.752335  0.381413  0.416785  1
  O  O35  1  0.752335  0.618586  0.916785  1
  O  O36  1  0.747665  0.118586  0.916785  1
  O  O37  1  0.747665  0.881414  0.416785  1
  O  O38  1  0.815587  0.364659  0.034664  1
  O  O39  1  0.815587  0.635342  0.534665  1
  O  O40  1  0.883852  0.368964  0.617456  1
  O  O41  1  0.883852  0.631037  0.117456  1
  O  O42  1  0.884880  0.094022  0.120841  1
  O  O43  1  0.884880  0.905977  0.620840  1
  O  O44  1  0.932437  0.472726  0.366367  1
  O  O45  1  0.932437  0.527275  0.866367  1
  O  O46  1  0.927373  0.200515  0.861962  1
  O  O47  1  0.383852  0.868963  0.882545  1
  P  P48  1  0.145504  0.184196  0.507463  1
  P  P49  1  0.145504  0.815804  0.007462  1
  P  P50  1  0.148778  0.464072  0.015724  1
  P  P51  1  0.148778  0.535929  0.515725  1
  P  P52  1  0.351222  0.035928  0.515725  1
  P  P53  1  0.351222  0.964071  0.015724  1
  P  P54  1  0.354496  0.315803  0.007462  1
  P  P55  1  0.354496  0.684196  0.507463  1
  P  P56  1  0.645504  0.315803  0.492538  1
  P  P57  1  0.645504  0.684196  0.992538  1
  P  P58  1  0.854496  0.815804  0.492538  1
  P  P59  1  0.648778  0.964071  0.484275  1
  P  P60  1  0.851222  0.464072  0.484275  1
  P  P61  1  0.851222  0.535929  0.984276  1
  P  P62  1  0.854496  0.184196  0.992538  1
  P  P63  1  0.648778  0.035928  0.984276  1
  V  V64  1  0.000000  0.355987  0.750000  1
  V  V65  1  0.000000  0.644014  0.250000  1
  V  V66  1  0.500000  0.144013  0.250000  1
  V  V67  1  0.500000  0.855986  0.750000  1
