# generated using pymatgen
data_LiV(PO3)4
_symmetry_space_group_name_H-M   'P 1'
_cell_length_a   7.32233268
_cell_length_b   7.32233291
_cell_length_c   9.86616169
_cell_angle_alpha   82.02088370
_cell_angle_beta   69.24258593
_cell_angle_gamma   109.59845896
_symmetry_Int_Tables_number   1
_chemical_formula_structural   LiV(PO3)4
_chemical_formula_sum   'Li2 V2 P8 O24'
_cell_volume   445.61177088
_cell_formula_units_Z   2
loop_
 _symmetry_equiv_pos_site_id
 _symmetry_equiv_pos_as_xyz
  1  'x, y, z'
loop_
 _atom_site_type_symbol
 _atom_site_label
 _atom_site_symmetry_multiplicity
 _atom_site_fract_x
 _atom_site_fract_y
 _atom_site_fract_z
 _atom_site_occupancy
  Li  Li0  1  0.217605  0.967605  0.750000  1
  Li  Li1  1  0.782395  0.032395  0.250000  1
  O  O2  1  0.696080  0.807568  0.649957  1
  O  O3  1  0.115283  0.808644  0.569150  1
  O  O4  1  0.194076  0.674768  0.339456  1
  O  O5  1  0.501309  0.846886  0.406786  1
  O  O6  1  0.300035  0.702979  0.827437  1
  O  O7  1  0.122207  0.315566  0.069150  1
  O  O8  1  0.211494  0.505591  0.569765  1
  O  O9  1  0.753673  0.908095  0.093214  1
  O  O10  1  0.575356  0.781259  0.930235  1
  O  O11  1  0.514223  0.533531  0.160545  1
  O  O12  1  0.042475  0.653963  0.149957  1
  O  O13  1  0.030415  0.127472  0.672563  1
  O  O14  1  0.969585  0.872528  0.327437  1
  O  O15  1  0.303920  0.192432  0.350043  1
  O  O16  1  0.485779  0.466469  0.839454  1
  O  O17  1  0.424644  0.218742  0.069764  1
  O  O18  1  0.957525  0.346036  0.850043  1
  O  O19  1  0.788506  0.494410  0.430235  1
  O  O20  1  0.877792  0.684434  0.930850  1
  O  O21  1  0.699965  0.297021  0.172563  1
  O  O22  1  0.498691  0.153114  0.593213  1
  O  O23  1  0.805924  0.325232  0.660545  1
  O  O24  1  0.884717  0.191356  0.430850  1
  O  O25  1  0.246327  0.091905  0.906787  1
  P  P26  1  0.999452  0.682563  0.303600  1
  P  P27  1  0.268387  0.728856  0.471818  1
  P  P28  1  0.000548  0.317437  0.696400  1
  P  P29  1  0.700674  0.740205  0.028182  1
  P  P30  1  0.513838  0.696949  0.803600  1
  P  P31  1  0.731613  0.271144  0.528182  1
  P  P32  1  0.299326  0.259794  0.971818  1
  P  P33  1  0.486162  0.303051  0.196400  1
  V  V34  1  0.000000  0.500000  0.000000  1
  V  V35  1  0.999999  0.999999  0.500000  1
