# generated using pymatgen
data_Li3Fe(PO4)2
_symmetry_space_group_name_H-M   'P 1'
_cell_length_a   8.22325642
_cell_length_b   5.43751300
_cell_length_c   6.26817323
_cell_angle_alpha   90.00000000
_cell_angle_beta   90.51097136
_cell_angle_gamma   90.00000000
_symmetry_Int_Tables_number   1
_chemical_formula_structural   Li3Fe(PO4)2
_chemical_formula_sum   'Li6 Fe2 P4 O16'
_cell_volume   280.26435154
_cell_formula_units_Z   2
loop_
 _symmetry_equiv_pos_site_id
 _symmetry_equiv_pos_as_xyz
  1  'x, y, z'
loop_
 _atom_site_type_symbol
 _atom_site_label
 _atom_site_symmetry_multiplicity
 _atom_site_fract_x
 _atom_site_fract_y
 _atom_site_fract_z
 _atom_site_occupancy
  Li  Li0  1  0.076649  0.750001  0.272037  1
  Li  Li1  1  0.923350  0.250001  0.727963  1
  Li  Li2  1  0.749733  0.750001  0.500429  1
  Li  Li3  1  0.250268  0.250001  0.499571  1
  Li  Li4  1  0.423200  0.750001  0.728868  1
  Li  Li5  1  0.576800  0.250001  0.271132  1
  O  O6  1  0.216969  0.519852  0.769549  1
  O  O7  1  0.996098  0.750001  0.562273  1
  O  O8  1  0.003902  0.250001  0.437727  1
  O  O9  1  0.008377  0.250001  0.034642  1
  O  O10  1  0.491457  0.250001  0.964653  1
  O  O11  1  0.216969  0.980148  0.769549  1
  O  O12  1  0.783030  0.480148  0.230450  1
  O  O13  1  0.283040  0.980215  0.230657  1
  O  O14  1  0.991623  0.750001  0.965358  1
  O  O15  1  0.496438  0.250001  0.561511  1
  O  O16  1  0.503563  0.750001  0.438489  1
  O  O17  1  0.508543  0.750001  0.035347  1
  O  O18  1  0.716959  0.019785  0.769343  1
  O  O19  1  0.716959  0.480215  0.769343  1
  O  O20  1  0.783030  0.019852  0.230450  1
  O  O21  1  0.283040  0.519785  0.230657  1
  P  P22  1  0.400117  0.750001  0.237636  1
  P  P23  1  0.599883  0.250001  0.762364  1
  P  P24  1  0.099842  0.750001  0.762897  1
  P  P25  1  0.900159  0.250001  0.237103  1
  Fe  Fe26  1  0.750044  0.750001  0.000054  1
  Fe  Fe27  1  0.249956  0.250001  0.999946  1
