# generated using pymatgen
data_Li3Mn2(PO4)3
_symmetry_space_group_name_H-M   'P 1'
_cell_length_a   4.85264350
_cell_length_b   4.85264337
_cell_length_c   19.12137320
_cell_angle_alpha   90.28453090
_cell_angle_beta   90.28453088
_cell_angle_gamma   68.60015357
_symmetry_Int_Tables_number   1
_chemical_formula_structural   Li3Mn2(PO4)3
_chemical_formula_sum   'Li6 Mn4 P6 O24'
_cell_volume   419.22209734
_cell_formula_units_Z   2
loop_
 _symmetry_equiv_pos_site_id
 _symmetry_equiv_pos_as_xyz
  1  'x, y, z'
loop_
 _atom_site_type_symbol
 _atom_site_label
 _atom_site_symmetry_multiplicity
 _atom_site_fract_x
 _atom_site_fract_y
 _atom_site_fract_z
 _atom_site_occupancy
  Li  Li0  1  0.323889  0.323889  0.579664  1
  Li  Li1  1  0.999810  0.999810  0.832634  1
  Li  Li2  1  0.000190  0.000190  0.500699  1
  Li  Li3  1  0.675428  0.675428  0.421204  1
  Li  Li4  1  0.324572  0.324572  0.912130  1
  Li  Li5  1  0.676111  0.676111  0.753669  1
  Mn  Mn6  1  0.000000  -0.000000  0.166667  1
  Mn  Mn7  1  0.999466  0.999466  0.998379  1
  Mn  Mn8  1  0.000534  0.000534  0.334954  1
  Mn  Mn9  1  0.000000  -0.000000  0.666667  1
  P  P10  1  0.653643  0.653643  0.250492  1
  P  P11  1  0.348032  0.348032  0.416445  1
  P  P12  1  0.649701  0.649701  0.584244  1
  P  P13  1  0.350299  0.350299  0.749089  1
  P  P14  1  0.651968  0.651968  0.916888  1
  P  P15  1  0.346357  0.346357  0.082842  1
  O  O16  1  0.767403  0.767403  0.185885  1
  O  O17  1  0.750181  0.750181  0.849547  1
  O  O18  1  0.249819  0.249819  0.483786  1
  O  O19  1  0.303890  0.760739  0.588366  1
  O  O20  1  0.761221  0.305111  0.921769  1
  O  O21  1  0.768081  0.768081  0.982301  1
  O  O22  1  0.224908  0.693280  0.083816  1
  O  O23  1  0.694889  0.238779  0.411565  1
  O  O24  1  0.305111  0.761221  0.921769  1
  O  O25  1  0.752532  0.752532  0.518183  1
  O  O26  1  0.247468  0.247468  0.815150  1
  O  O27  1  0.236779  0.236779  0.681544  1
  O  O28  1  0.696110  0.239261  0.744967  1
  O  O29  1  0.306720  0.775092  0.249517  1
  O  O30  1  0.760739  0.303890  0.588366  1
  O  O31  1  0.775092  0.306720  0.249517  1
  O  O32  1  0.232597  0.232597  0.147448  1
  O  O33  1  0.240325  0.240325  0.014097  1
  O  O34  1  0.763221  0.763221  0.651790  1
  O  O35  1  0.239261  0.696110  0.744967  1
  O  O36  1  0.693280  0.224908  0.083816  1
  O  O37  1  0.238779  0.694889  0.411565  1
  O  O38  1  0.231919  0.231919  0.351033  1
  O  O39  1  0.759675  0.759675  0.319236  1
