# generated using pymatgen
data_MoP2O7
_symmetry_space_group_name_H-M   'P 1'
_cell_length_a   6.51731341
_cell_length_b   6.51639450
_cell_length_c   13.29339991
_cell_angle_alpha   78.67521063
_cell_angle_beta   78.06004955
_cell_angle_gamma   100.22761509
_symmetry_Int_Tables_number   1
_chemical_formula_structural   MoP2O7
_chemical_formula_sum   'Mo4 P8 O28'
_cell_volume   527.40000136
_cell_formula_units_Z   4
loop_
 _symmetry_equiv_pos_site_id
 _symmetry_equiv_pos_as_xyz
  1  'x, y, z'
loop_
 _atom_site_type_symbol
 _atom_site_label
 _atom_site_symmetry_multiplicity
 _atom_site_fract_x
 _atom_site_fract_y
 _atom_site_fract_z
 _atom_site_occupancy
  O  O0  1  0.562336  0.645783  0.627563  1
  O  O1  1  0.773497  0.189927  0.872474  1
  O  O2  1  0.912154  0.537569  0.642304  1
  O  O3  1  0.885216  0.982697  0.699291  1
  O  O4  1  0.226503  0.810075  0.127526  1
  O  O5  1  0.087845  0.462430  0.357696  1
  O  O6  1  0.114783  0.017302  0.300709  1
  O  O7  1  0.091605  0.198703  0.518661  1
  O  O8  1  0.040655  0.869969  0.882530  1
  O  O9  1  0.320073  0.445522  0.142190  1
  O  O10  1  0.252315  0.923306  0.617428  1
  O  O11  1  0.291556  0.589117  0.487178  1
  O  O12  1  0.181675  0.584683  0.800643  1
  O  O13  1  0.576107  0.778829  0.012733  1
  O  O14  1  0.230130  0.267251  0.675912  1
  O  O15  1  0.437664  0.354217  0.372437  1
  O  O16  1  0.217271  0.610363  0.981250  1
  O  O17  1  0.959346  0.130032  0.117470  1
  O  O18  1  0.443092  0.906127  0.823969  1
  O  O19  1  0.782729  0.389637  0.018751  1
  O  O20  1  0.908394  0.801296  0.481340  1
  O  O21  1  0.769871  0.732750  0.324088  1
  O  O22  1  0.423892  0.221170  0.987267  1
  O  O23  1  0.818325  0.415316  0.199357  1
  O  O24  1  0.708444  0.410884  0.512822  1
  O  O25  1  0.747686  0.076694  0.382572  1
  O  O26  1  0.679927  0.554478  0.857810  1
  O  O27  1  0.556908  0.093873  0.176031  1
  P  P28  1  0.221973  0.753228  0.866403  1
  P  P29  1  0.778029  0.246773  0.133597  1
  P  P30  1  0.880487  0.911417  0.366489  1
  P  P31  1  0.765034  0.590164  0.569813  1
  P  P32  1  0.339897  0.665175  0.069722  1
  P  P33  1  0.234967  0.409835  0.430187  1
  P  P34  1  0.119512  0.088583  0.633511  1
  P  P35  1  0.660103  0.334825  0.930279  1
  Mo  Mo36  1  0.737739  0.879578  0.855716  1
  Mo  Mo37  1  0.764731  0.406390  0.355793  1
  Mo  Mo38  1  0.235268  0.593610  0.644207  1
  Mo  Mo39  1  0.262262  0.120422  0.144284  1
