# generated using pymatgen
data_V(PO3)4
_symmetry_space_group_name_H-M   'P 1'
_cell_length_a   9.38305423
_cell_length_b   10.40416354
_cell_length_c   9.09816069
_cell_angle_alpha   90.00000000
_cell_angle_beta   90.81572506
_cell_angle_gamma   90.00000000
_symmetry_Int_Tables_number   1
_chemical_formula_structural   V(PO3)4
_chemical_formula_sum   'V4 P16 O48'
_cell_volume   888.09818669
_cell_formula_units_Z   4
loop_
 _symmetry_equiv_pos_site_id
 _symmetry_equiv_pos_as_xyz
  1  'x, y, z'
loop_
 _atom_site_type_symbol
 _atom_site_label
 _atom_site_symmetry_multiplicity
 _atom_site_fract_x
 _atom_site_fract_y
 _atom_site_fract_z
 _atom_site_occupancy
  O  O0  1  0.102058  0.701581  0.592012  1
  O  O1  1  0.111672  0.720178  0.914008  1
  O  O2  1  0.111104  0.269237  0.750663  1
  O  O3  1  0.111565  0.939856  0.738516  1
  O  O4  1  0.147654  0.483212  0.875197  1
  O  O5  1  0.126396  0.377370  0.242924  1
  O  O6  1  0.136792  0.140217  0.410934  1
  O  O7  1  0.135046  0.134784  0.102042  1
  O  O8  1  0.135173  0.869121  0.233733  1
  O  O9  1  0.167786  0.465349  0.600764  1
  O  O10  1  0.197724  0.584236  0.374050  1
  O  O11  1  0.211150  0.578688  0.114115  1
  O  O12  1  0.288850  0.078688  0.885884  1
  O  O13  1  0.302277  0.084236  0.625949  1
  O  O14  1  0.332214  0.965349  0.399236  1
  O  O15  1  0.364827  0.369121  0.766266  1
  O  O16  1  0.364953  0.634784  0.897959  1
  O  O17  1  0.897941  0.298419  0.407988  1
  O  O18  1  0.373604  0.877370  0.757076  1
  O  O19  1  0.352345  0.983212  0.124803  1
  O  O20  1  0.388436  0.439857  0.261484  1
  O  O21  1  0.388896  0.769236  0.249337  1
  O  O22  1  0.388327  0.220178  0.085991  1
  O  O23  1  0.397941  0.201581  0.407988  1
  O  O24  1  0.602059  0.798419  0.592012  1
  O  O25  1  0.611672  0.779822  0.914009  1
  O  O26  1  0.611104  0.230763  0.750663  1
  O  O27  1  0.611565  0.560143  0.738516  1
  O  O28  1  0.647654  0.016788  0.875197  1
  O  O29  1  0.626396  0.122630  0.242924  1
  O  O30  1  0.636792  0.359783  0.410933  1
  O  O31  1  0.635046  0.365216  0.102041  1
  O  O32  1  0.635173  0.630879  0.233734  1
  O  O33  1  0.667786  0.034651  0.600764  1
  O  O34  1  0.697724  0.915764  0.374051  1
  O  O35  1  0.711150  0.921312  0.114116  1
  O  O36  1  0.788850  0.421312  0.885885  1
  O  O37  1  0.802277  0.415764  0.625950  1
  O  O38  1  0.832214  0.534651  0.399236  1
  O  O39  1  0.864827  0.130879  0.766267  1
  O  O40  1  0.864953  0.865216  0.897958  1
  O  O41  1  0.863208  0.859783  0.589066  1
  O  O42  1  0.873604  0.622630  0.757076  1
  O  O43  1  0.852345  0.516788  0.124803  1
  O  O44  1  0.888436  0.060143  0.261484  1
  O  O45  1  0.888896  0.730763  0.249337  1
  O  O46  1  0.888327  0.279822  0.085992  1
  O  O47  1  0.363208  0.640217  0.589067  1
  P  P48  1  0.207277  0.382340  0.750239  1
  P  P49  1  0.213076  0.610035  0.943868  1
  P  P50  1  0.212633  0.604084  0.547006  1
  P  P51  1  0.235172  0.483792  0.248202  1
  P  P52  1  0.264829  0.983792  0.751799  1
  P  P53  1  0.287367  0.104084  0.452993  1
  P  P54  1  0.286924  0.110035  0.056132  1
  P  P55  1  0.292723  0.882340  0.249762  1
  P  P56  1  0.707277  0.117660  0.750238  1
  P  P57  1  0.713076  0.889964  0.943868  1
  P  P58  1  0.792723  0.617660  0.249761  1
  P  P59  1  0.735172  0.016208  0.248201  1
  P  P60  1  0.764829  0.516208  0.751800  1
  P  P61  1  0.787367  0.395916  0.452994  1
  P  P62  1  0.786924  0.389965  0.056132  1
  P  P63  1  0.712633  0.895916  0.547007  1
  V  V64  1  0.011908  0.214126  0.251880  1
  V  V65  1  0.488093  0.714126  0.748120  1
  V  V66  1  0.511908  0.285874  0.251880  1
  V  V67  1  0.988093  0.785874  0.748120  1
