# generated using pymatgen
data_LiMn2P5O16
_symmetry_space_group_name_H-M   'P 1'
_cell_length_a   18.37433022
_cell_length_b   6.82064080
_cell_length_c   5.09095390
_cell_angle_alpha   90.00000000
_cell_angle_beta   90.41072562
_cell_angle_gamma   90.00000000
_symmetry_Int_Tables_number   1
_chemical_formula_structural   LiMn2P5O16
_chemical_formula_sum   'Li2 Mn4 P10 O32'
_cell_volume   638.00590989
_cell_formula_units_Z   2
loop_
 _symmetry_equiv_pos_site_id
 _symmetry_equiv_pos_as_xyz
  1  'x, y, z'
loop_
 _atom_site_type_symbol
 _atom_site_label
 _atom_site_symmetry_multiplicity
 _atom_site_fract_x
 _atom_site_fract_y
 _atom_site_fract_z
 _atom_site_occupancy
  Li  Li0  1  0.466439  0.367851  0.748025  1
  Li  Li1  1  0.966439  0.632150  0.748026  1
  O  O2  1  0.356847  0.293613  0.236975  1
  O  O3  1  0.920862  0.406734  0.046605  1
  O  O4  1  0.929205  0.915444  0.930545  1
  O  O5  1  0.891685  0.439351  0.545334  1
  O  O6  1  0.008784  0.212155  0.671204  1
  O  O7  1  0.071927  0.628948  0.905992  1
  O  O8  1  0.071114  0.063233  0.070632  1
  O  O9  1  0.118334  0.575048  0.437700  1
  O  O10  1  0.115173  0.970668  0.610178  1
  O  O11  1  0.136024  0.307997  0.778738  1
  O  O12  1  0.196754  0.864924  0.148615  1
  O  O13  1  0.210355  0.593574  0.809523  1
  O  O14  1  0.288999  0.599380  0.213764  1
  O  O15  1  0.306682  0.851055  0.845331  1
  O  O16  1  0.987068  0.783653  0.355077  1
  O  O17  1  0.387069  0.952340  0.378172  1
  O  O18  1  0.391685  0.560649  0.545333  1
  O  O19  1  0.429205  0.084555  0.930546  1
  O  O20  1  0.420862  0.593266  0.046606  1
  O  O21  1  0.487068  0.216346  0.355077  1
  O  O22  1  0.508784  0.787846  0.671202  1
  O  O23  1  0.571927  0.371051  0.905991  1
  O  O24  1  0.887069  0.047660  0.378172  1
  O  O25  1  0.618334  0.424952  0.437699  1
  O  O26  1  0.615173  0.029333  0.610177  1
  O  O27  1  0.636024  0.692004  0.778739  1
  O  O28  1  0.696754  0.135075  0.148614  1
  O  O29  1  0.710355  0.406427  0.809524  1
  O  O30  1  0.788999  0.400619  0.213762  1
  O  O31  1  0.806682  0.148944  0.845332  1
  O  O32  1  0.856847  0.706386  0.236974  1
  O  O33  1  0.571114  0.936768  0.070633  1
  P  P34  1  0.918813  0.878828  0.228054  1
  P  P35  1  0.871022  0.476345  0.260307  1
  P  P36  1  0.750799  0.258393  0.004160  1
  P  P37  1  0.628087  0.463470  0.730495  1
  P  P38  1  0.080099  0.122448  0.780700  1
  P  P39  1  0.128087  0.536530  0.730496  1
  P  P40  1  0.250799  0.741607  0.004160  1
  P  P41  1  0.580099  0.877552  0.780701  1
  P  P42  1  0.418813  0.121172  0.228055  1
  P  P43  1  0.371022  0.523656  0.260306  1
  Mn  Mn44  1  0.093375  0.824410  0.257648  1
  Mn  Mn45  1  0.408543  0.823803  0.748862  1
  Mn  Mn46  1  0.593375  0.175591  0.257648  1
  Mn  Mn47  1  0.908543  0.176196  0.748863  1
