# generated using pymatgen
data_Fe3(PO4)4
_symmetry_space_group_name_H-M   'P 1'
_cell_length_a   8.88703558
_cell_length_b   11.81012749
_cell_length_c   6.01182181
_cell_angle_alpha   90.00000000
_cell_angle_beta   100.39973362
_cell_angle_gamma   90.00000000
_symmetry_Int_Tables_number   1
_chemical_formula_structural   Fe3(PO4)4
_chemical_formula_sum   'Fe6 P8 O32'
_cell_volume   620.61732923
_cell_formula_units_Z   2
loop_
 _symmetry_equiv_pos_site_id
 _symmetry_equiv_pos_as_xyz
  1  'x, y, z'
loop_
 _atom_site_type_symbol
 _atom_site_label
 _atom_site_symmetry_multiplicity
 _atom_site_fract_x
 _atom_site_fract_y
 _atom_site_fract_z
 _atom_site_occupancy
  Fe  Fe0  1  0.756793  0.086251  0.360667  1
  Fe  Fe1  1  0.277360  0.928487  0.679964  1
  Fe  Fe2  1  0.361168  0.202588  0.118765  1
  Fe  Fe3  1  0.722640  0.428487  0.820036  1
  Fe  Fe4  1  0.243207  0.586251  0.139333  1
  Fe  Fe5  1  0.638832  0.702588  0.381235  1
  P  P6  1  0.912299  0.863021  0.621370  1
  P  P7  1  0.604098  0.414304  0.287218  1
  P  P8  1  0.087701  0.363021  0.878630  1
  P  P9  1  0.585735  0.091651  0.820060  1
  P  P10  1  0.395902  0.914304  0.212782  1
  P  P11  1  0.899483  0.629634  0.108376  1
  P  P12  1  0.100517  0.129634  0.391624  1
  P  P13  1  0.414265  0.591651  0.679940  1
  O  O14  1  0.289039  0.888369  0.985941  1
  O  O15  1  0.900555  0.561666  0.331036  1
  O  O16  1  0.220629  0.219095  0.349382  1
  O  O17  1  0.506661  0.481241  0.748484  1
  O  O18  1  0.837141  0.563483  0.891412  1
  O  O19  1  0.918402  0.331620  0.875325  1
  O  O20  1  0.710961  0.388369  0.514059  1
  O  O21  1  0.150321  0.444185  0.074969  1
  O  O22  1  0.810223  0.757268  0.599650  1
  O  O23  1  0.291955  0.575106  0.463197  1
  O  O24  1  0.922567  0.918179  0.857268  1
  O  O25  1  0.941706  0.177497  0.404377  1
  O  O26  1  0.849679  0.944185  0.425031  1
  O  O27  1  0.081598  0.831620  0.624675  1
  O  O28  1  0.698944  0.376082  0.109073  1
  O  O29  1  0.665063  0.124687  0.619157  1
  O  O30  1  0.301056  0.876082  0.390927  1
  O  O31  1  0.462950  0.335799  0.260970  1
  O  O32  1  0.440119  0.042059  0.231693  1
  O  O33  1  0.523955  0.686848  0.631308  1
  O  O34  1  0.708045  0.075106  0.036803  1
  O  O35  1  0.476045  0.186848  0.868692  1
  O  O36  1  0.162859  0.063483  0.608588  1
  O  O37  1  0.099445  0.061666  0.168964  1
  O  O38  1  0.493339  0.981241  0.751516  1
  O  O39  1  0.077433  0.418179  0.642732  1
  O  O40  1  0.334937  0.624687  0.880843  1
  O  O41  1  0.058294  0.677497  0.095623  1
  O  O42  1  0.189777  0.257268  0.900350  1
  O  O43  1  0.779371  0.719095  0.150618  1
  O  O44  1  0.537050  0.835799  0.239030  1
  O  O45  1  0.559881  0.542059  0.268307  1
