# generated using pymatgen
data_Li9Cr3P8O29
_symmetry_space_group_name_H-M   'P 1'
_cell_length_a   9.82646895
_cell_length_b   9.82649050
_cell_length_c   13.76485894
_cell_angle_alpha   90.00026484
_cell_angle_beta   90.00019889
_cell_angle_gamma   60.00048482
_symmetry_Int_Tables_number   1
_chemical_formula_structural   Li9Cr3P8O29
_chemical_formula_sum   'Li18 Cr6 P16 O58'
_cell_volume   1151.06657650
_cell_formula_units_Z   2
loop_
 _symmetry_equiv_pos_site_id
 _symmetry_equiv_pos_as_xyz
  1  'x, y, z'
loop_
 _atom_site_type_symbol
 _atom_site_label
 _atom_site_symmetry_multiplicity
 _atom_site_fract_x
 _atom_site_fract_y
 _atom_site_fract_z
 _atom_site_occupancy
  Li  Li0  1  0.100247  0.235511  0.563674  1
  Li  Li1  1  0.899748  0.764487  0.436327  1
  Li  Li2  1  0.764486  0.899753  0.936330  1
  Li  Li3  1  0.899760  0.335758  0.936327  1
  Li  Li4  1  0.666678  0.666676  0.120006  1
  Li  Li5  1  0.666675  0.666679  0.620004  1
  Li  Li6  1  0.764482  0.335762  0.436329  1
  Li  Li7  1  0.235513  0.100252  0.063672  1
  Li  Li8  1  0.100245  0.664237  0.063671  1
  Li  Li9  1  0.333332  0.333321  0.379995  1
  Li  Li10  1  0.000002  0.999998  0.500000  1
  Li  Li11  1  0.000001  0.000000  0.999998  1
  Li  Li12  1  0.333347  0.333322  0.879995  1
  Li  Li13  1  0.235522  0.664233  0.563673  1
  Li  Li14  1  0.664230  0.100251  0.563672  1
  Li  Li15  1  0.335759  0.764492  0.936330  1
  Li  Li16  1  0.664240  0.235514  0.063672  1
  Li  Li17  1  0.335762  0.899753  0.436327  1
  O  O18  1  0.786758  0.000001  0.250000  1
  O  O19  1  0.892173  0.626757  0.666400  1
  O  O20  1  0.747285  0.921751  0.655858  1
  O  O21  1  0.774582  0.998228  0.433175  1
  O  O22  1  0.921748  0.747282  0.155860  1
  O  O23  1  0.998227  0.774586  0.933172  1
  O  O24  1  0.999998  0.213242  0.250002  1
  O  O25  1  0.001777  0.225416  0.066824  1
  O  O26  1  0.078254  0.252722  0.844133  1
  O  O27  1  0.225417  0.001770  0.566825  1
  O  O28  1  0.252717  0.078250  0.344143  1
  O  O29  1  0.107828  0.373247  0.333598  1
  O  O30  1  0.188877  0.323079  0.662916  1
  O  O31  1  0.107836  0.518925  0.833593  1
  O  O32  1  0.001780  0.772813  0.566824  1
  O  O33  1  0.000007  0.786758  0.749997  1
  O  O34  1  0.078251  0.669030  0.344142  1
  O  O35  1  0.323074  0.188875  0.162934  1
  O  O36  1  0.373251  0.107822  0.833594  1
  O  O37  1  0.188873  0.488052  0.162920  1
  O  O38  1  0.333323  0.333315  0.014540  1
  O  O39  1  0.333366  0.333313  0.514540  1
  O  O40  1  0.323087  0.488044  0.662924  1
  O  O41  1  0.518926  0.107834  0.333596  1
  O  O42  1  0.488054  0.188872  0.662933  1
  O  O43  1  0.252727  0.669031  0.844137  1
  O  O44  1  0.213247  0.786754  0.250000  1
  O  O45  1  0.225421  0.772801  0.066826  1
  O  O46  1  0.227202  0.774576  0.433174  1
  O  O47  1  0.373248  0.518921  0.333594  1
  O  O48  1  0.488050  0.323083  0.162916  1
  O  O49  1  0.330971  0.747277  0.655862  1
  O  O50  1  0.518929  0.373244  0.833597  1
  O  O51  1  0.669035  0.078248  0.844138  1
  O  O52  1  0.213241  -0.000001  0.749998  1
  O  O53  1  0.227183  0.998228  0.933172  1
  O  O54  1  0.772810  0.001775  0.066826  1
  O  O55  1  0.921753  0.330971  0.655860  1
  O  O56  1  0.330970  0.921752  0.155864  1
  O  O57  1  0.481080  0.626757  0.166406  1
  O  O58  1  0.669033  0.252722  0.344138  1
  O  O59  1  0.511956  0.676922  0.837087  1
  O  O60  1  0.626761  0.481079  0.666403  1
  O  O61  1  0.772803  0.225421  0.566826  1
  O  O62  1  0.774589  0.227190  0.933175  1
  O  O63  1  0.786757  0.213247  0.749999  1
  O  O64  1  0.747283  0.330969  0.155862  1
  O  O65  1  0.511950  0.811127  0.337079  1
  O  O66  1  0.481077  0.892167  0.666403  1
  O  O67  1  0.892168  0.481076  0.166408  1
  O  O68  1  0.666687  0.666677  0.985462  1
  O  O69  1  0.666680  0.666685  0.485461  1
  O  O70  1  0.811131  0.511946  0.837077  1
  O  O71  1  0.626753  0.892173  0.166407  1
  O  O72  1  0.676938  0.811121  0.837072  1
  O  O73  1  0.811124  0.676933  0.337068  1
  O  O74  1  0.998223  0.227187  0.433175  1
  O  O75  1  0.676922  0.511956  0.337086  1
  P  P76  1  0.682899  0.227052  0.843987  1
  P  P77  1  0.772949  0.317106  0.656013  1
  P  P78  1  0.666678  0.666665  0.875406  1
  P  P79  1  0.666671  0.666674  0.375404  1
  P  P80  1  0.909950  0.317106  0.156014  1
  P  P81  1  0.772945  0.909951  0.156014  1
  P  P82  1  0.090049  0.227054  0.343988  1
  P  P83  1  0.227054  0.090051  0.843984  1
  P  P84  1  0.090058  0.682897  0.843985  1
  P  P85  1  0.333334  0.333330  0.124597  1
  P  P86  1  0.333346  0.333327  0.624598  1
  P  P87  1  0.227061  0.682892  0.343986  1
  P  P88  1  0.317110  0.772943  0.156014  1
  P  P89  1  0.682897  0.090052  0.343986  1
  P  P90  1  0.317105  0.909945  0.656013  1
  P  P91  1  0.909954  0.772949  0.656012  1
  Cr  Cr92  1  0.433679  0.000003  0.250012  1
  Cr  Cr93  1  0.566330  0.433682  0.250004  1
  Cr  Cr94  1  0.433693  0.566317  0.749992  1
  Cr  Cr95  1  0.566330  0.999995  0.749997  1
  Cr  Cr96  1  0.000005  0.566326  0.249998  1
  Cr  Cr97  1  1.000008  0.433683  0.749997  1
