# generated using pymatgen
data_Co3(P2O7)2
_symmetry_space_group_name_H-M   'P 1'
_cell_length_a   7.26867667
_cell_length_b   7.82727126
_cell_length_c   9.40048312
_cell_angle_alpha   90.00000000
_cell_angle_beta   110.36120732
_cell_angle_gamma   90.00000000
_symmetry_Int_Tables_number   1
_chemical_formula_structural   Co3(P2O7)2
_chemical_formula_sum   'Co6 P8 O28'
_cell_volume   501.41280628
_cell_formula_units_Z   2
loop_
 _symmetry_equiv_pos_site_id
 _symmetry_equiv_pos_as_xyz
  1  'x, y, z'
loop_
 _atom_site_type_symbol
 _atom_site_label
 _atom_site_symmetry_multiplicity
 _atom_site_fract_x
 _atom_site_fract_y
 _atom_site_fract_z
 _atom_site_occupancy
  Co  Co0  1  0.804862  0.375795  0.470089  1
  Co  Co1  1  0.804863  0.124205  0.970089  1
  Co  Co2  1  0.195138  0.875795  0.029911  1
  Co  Co3  1  0.000000  0.500000  0.000000  1
  Co  Co4  1  0.195137  0.624205  0.529910  1
  Co  Co5  1  0.000000  0.000000  0.500000  1
  P  P6  1  0.113421  0.290638  0.303381  1
  P  P7  1  0.399473  0.952948  0.791960  1
  P  P8  1  0.399474  0.547052  0.291960  1
  P  P9  1  0.600527  0.452948  0.708040  1
  P  P10  1  0.600527  0.047052  0.208040  1
  P  P11  1  0.886579  0.709362  0.696620  1
  P  P12  1  0.113422  0.209362  0.803381  1
  P  P13  1  0.886578  0.790638  0.196619  1
  O  O14  1  0.733467  0.391099  0.868058  1
  O  O15  1  0.001071  0.289282  0.129922  1
  O  O16  1  0.968003  0.922340  0.111610  1
  O  O17  1  0.867295  0.617949  0.118550  1
  O  O18  1  0.001070  0.210718  0.629922  1
  O  O19  1  0.968003  0.577659  0.611611  1
  O  O20  1  0.998929  0.710718  0.870078  1
  O  O21  1  0.031997  0.077659  0.888390  1
  O  O22  1  0.132704  0.382051  0.881449  1
  O  O23  1  0.998928  0.789282  0.370078  1
  O  O24  1  0.031998  0.422340  0.388389  1
  O  O25  1  0.326315  0.145330  0.813865  1
  O  O26  1  0.368484  0.838025  0.912136  1
  O  O27  1  0.132704  0.117949  0.381449  1
  O  O28  1  0.266533  0.891099  0.631942  1
  O  O29  1  0.384622  0.479828  0.685134  1
  O  O30  1  0.326315  0.354670  0.313866  1
  O  O31  1  0.631515  0.161975  0.087863  1
  O  O32  1  0.266533  0.608901  0.131942  1
  O  O33  1  0.615378  0.979828  0.814866  1
  O  O34  1  0.384623  0.020172  0.185134  1
  O  O35  1  0.673686  0.854670  0.186135  1
  O  O36  1  0.631516  0.338025  0.587864  1
  O  O37  1  0.673685  0.645330  0.686134  1
  O  O38  1  0.615378  0.520172  0.314866  1
  O  O39  1  0.733466  0.108901  0.368057  1
  O  O40  1  0.867296  0.882051  0.618551  1
  O  O41  1  0.368484  0.661975  0.412136  1
