# generated using pymatgen
data_Li3Co3(PO4)4
_symmetry_space_group_name_H-M   'P 1'
_cell_length_a   14.48058332
_cell_length_b   4.99913684
_cell_length_c   8.25948510
_cell_angle_alpha   90.00000000
_cell_angle_beta   100.54542351
_cell_angle_gamma   90.00000000
_symmetry_Int_Tables_number   1
_chemical_formula_structural   Li3Co3(PO4)4
_chemical_formula_sum   'Li6 Co6 P8 O32'
_cell_volume   587.80899008
_cell_formula_units_Z   2
loop_
 _symmetry_equiv_pos_site_id
 _symmetry_equiv_pos_as_xyz
  1  'x, y, z'
loop_
 _atom_site_type_symbol
 _atom_site_label
 _atom_site_symmetry_multiplicity
 _atom_site_fract_x
 _atom_site_fract_y
 _atom_site_fract_z
 _atom_site_occupancy
  Li  Li0  1  0.121822  0.494071  0.827675  1
  Li  Li1  1  0.878178  0.505928  0.172325  1
  Li  Li2  1  0.621822  0.005929  0.327674  1
  Li  Li3  1  0.500000  0.500001  0.499999  1
  Li  Li4  1  0.378178  0.994072  0.672325  1
  Li  Li5  1  0.000000  0.000000  0.000000  1
  O  O6  1  0.373717  0.217287  0.892847  1
  O  O7  1  0.980172  0.467657  0.739295  1
  O  O8  1  0.741550  0.399911  0.068559  1
  O  O9  1  0.873717  0.282714  0.392848  1
  O  O10  1  0.930212  0.812223  0.475565  1
  O  O11  1  0.843233  0.903293  0.187986  1
  O  O12  1  0.156767  0.096706  0.812014  1
  O  O13  1  0.069788  0.187776  0.524434  1
  O  O14  1  0.126283  0.717285  0.607153  1
  O  O15  1  0.258450  0.600088  0.931440  1
  O  O16  1  0.019828  0.532344  0.260706  1
  O  O17  1  0.241550  0.100090  0.568560  1
  O  O18  1  0.300755  0.038699  0.189011  1
  O  O19  1  0.430211  0.687776  0.975566  1
  O  O20  1  0.109570  0.208267  0.107769  1
  O  O21  1  0.343233  0.596706  0.687986  1
  O  O22  1  0.626283  0.782714  0.107152  1
  O  O23  1  0.103537  0.700697  0.042178  1
  O  O24  1  0.396462  0.200699  0.457822  1
  O  O25  1  0.519828  0.967656  0.760705  1
  O  O26  1  0.758450  0.899911  0.431440  1
  O  O27  1  0.390431  0.708265  0.392232  1
  O  O28  1  0.609570  0.291734  0.607768  1
  O  O29  1  0.699245  0.961300  0.810989  1
  O  O30  1  0.480172  0.032344  0.239294  1
  O  O31  1  0.603538  0.799302  0.542178  1
  O  O32  1  0.896463  0.299302  0.957822  1
  O  O33  1  0.800755  0.461301  0.689011  1
  O  O34  1  0.656767  0.403293  0.312014  1
  O  O35  1  0.890430  0.791734  0.892232  1
  O  O36  1  0.569789  0.312225  0.024435  1
  O  O37  1  0.199245  0.538700  0.310989  1
  P  P38  1  0.351001  0.517004  0.875718  1
  P  P39  1  0.107187  0.487968  0.183443  1
  P  P40  1  0.392812  0.987966  0.316558  1
  P  P41  1  0.607188  0.012033  0.683443  1
  P  P42  1  0.892813  0.512033  0.816557  1
  P  P43  1  0.648998  0.482997  0.124282  1
  P  P44  1  0.148999  0.017004  0.624282  1
  P  P45  1  0.851001  0.982995  0.375718  1
  Co  Co46  1  0.707348  0.552865  0.521554  1
  Co  Co47  1  0.500000  0.000000  1.000000  1
  Co  Co48  1  0.792653  0.052865  0.978445  1
  Co  Co49  1  0.207347  0.947136  0.021555  1
  Co  Co50  1  0.292652  0.447136  0.478445  1
  Co  Co51  1  0.000000  0.500001  0.500000  1
