# generated using pymatgen
data_Li2MnP2O7
_symmetry_space_group_name_H-M   'P 1'
_cell_length_a   9.46276406
_cell_length_b   8.19917227
_cell_length_c   9.46263678
_cell_angle_alpha   71.16233810
_cell_angle_beta   149.17528686
_cell_angle_gamma   119.06739177
_symmetry_Int_Tables_number   1
_chemical_formula_structural   Li2MnP2O7
_chemical_formula_sum   'Li4 Mn2 P4 O14'
_cell_volume   321.44425351
_cell_formula_units_Z   2
loop_
 _symmetry_equiv_pos_site_id
 _symmetry_equiv_pos_as_xyz
  1  'x, y, z'
loop_
 _atom_site_type_symbol
 _atom_site_label
 _atom_site_symmetry_multiplicity
 _atom_site_fract_x
 _atom_site_fract_y
 _atom_site_fract_z
 _atom_site_occupancy
  Li  Li0  1  0.503321  0.670987  0.950425  1
  Li  Li1  1  0.279487  0.828999  0.332350  1
  Li  Li2  1  0.720502  0.170997  0.667646  1
  Li  Li3  1  0.496667  0.329003  0.049563  1
  O  O4  1  0.206838  0.051930  0.870270  1
  O  O5  1  0.823701  0.268764  0.261971  1
  O  O6  1  0.006860  0.768830  0.945055  1
  O  O7  1  0.176279  0.731228  0.738010  1
  O  O8  1  0.993135  0.231174  0.054939  1
  O  O9  1  0.375940  0.465551  0.762551  1
  O  O10  1  0.181522  0.551848  0.345009  1
  O  O11  1  0.270752  0.249930  0.520809  1
  O  O12  1  0.793150  0.948065  0.129719  1
  O  O13  1  0.296974  0.034355  0.410436  1
  O  O14  1  0.729229  0.750060  0.479177  1
  O  O15  1  0.818476  0.448142  0.654995  1
  O  O16  1  0.624032  0.534434  0.237427  1
  O  O17  1  0.703006  0.965637  0.589546  1
  P  P18  1  0.841695  0.607180  0.527043  1
  P  P19  1  0.919908  0.892913  0.734474  1
  P  P20  1  0.158309  0.392817  0.472956  1
  P  P21  1  0.080083  0.107079  0.265517  1
  Mn  Mn22  1  0.000097  0.500045  0.000085  1
  Mn  Mn23  1  0.500038  1.000028  1.000026  1
