# generated using pymatgen
data_Li3Ni(PO4)2
_symmetry_space_group_name_H-M   'P 1'
_cell_length_a   8.27096672
_cell_length_b   10.36879372
_cell_length_c   8.17584695
_cell_angle_alpha   90.00000000
_cell_angle_beta   105.58946385
_cell_angle_gamma   90.00000000
_symmetry_Int_Tables_number   1
_chemical_formula_structural   Li3Ni(PO4)2
_chemical_formula_sum   'Li12 Ni4 P8 O32'
_cell_volume   675.36592729
_cell_formula_units_Z   4
loop_
 _symmetry_equiv_pos_site_id
 _symmetry_equiv_pos_as_xyz
  1  'x, y, z'
loop_
 _atom_site_type_symbol
 _atom_site_label
 _atom_site_symmetry_multiplicity
 _atom_site_fract_x
 _atom_site_fract_y
 _atom_site_fract_z
 _atom_site_occupancy
  Li  Li0  1  0.098664  0.663504  0.609264  1
  Li  Li1  1  0.168702  0.151676  0.644281  1
  Li  Li2  1  0.156314  0.354405  0.163244  1
  Li  Li3  1  0.343685  0.854405  0.836756  1
  Li  Li4  1  0.331298  0.651676  0.355719  1
  Li  Li5  1  0.401337  0.163504  0.390737  1
  Li  Li6  1  0.588349  0.833466  0.604788  1
  Li  Li7  1  0.661814  0.342512  0.650451  1
  Li  Li8  1  0.715086  0.077094  0.453351  1
  Li  Li9  1  0.784914  0.577093  0.546649  1
  Li  Li10  1  0.838186  0.842511  0.349549  1
  Li  Li11  1  0.911651  0.333466  0.395212  1
  O  O12  1  0.052520  0.167386  0.129598  1
  O  O13  1  0.911459  0.658975  0.388237  1
  O  O14  1  0.992703  0.537816  0.726616  1
  O  O15  1  0.883169  0.142846  0.348879  1
  O  O16  1  0.008235  0.061666  0.759571  1
  O  O17  1  0.080730  0.324029  0.619483  1
  O  O18  1  0.002472  0.454809  0.254816  1
  O  O19  1  0.116748  0.845988  0.685746  1
  O  O20  1  0.204131  0.385229  0.927595  1
  O  O21  1  0.991771  0.944030  0.237877  1
  O  O22  1  0.100327  0.672698  0.187885  1
  O  O23  1  0.197108  0.102565  0.425934  1
  O  O24  1  0.302891  0.602565  0.574065  1
  O  O25  1  0.399672  0.172698  0.812114  1
  O  O26  1  0.447481  0.667385  0.870403  1
  O  O27  1  0.295869  0.885230  0.072406  1
  O  O28  1  0.793446  0.614817  0.076178  1
  O  O29  1  0.497528  0.954809  0.745184  1
  O  O30  1  0.508229  0.444030  0.762123  1
  O  O31  1  0.419270  0.824029  0.380517  1
  O  O32  1  0.588541  0.158975  0.611763  1
  O  O33  1  0.491766  0.561666  0.240429  1
  O  O34  1  0.507297  0.037817  0.273384  1
  O  O35  1  0.616831  0.642846  0.651121  1
  O  O36  1  0.706554  0.114816  0.923822  1
  O  O37  1  0.572315  0.356850  0.114356  1
  O  O38  1  0.603857  0.829228  0.177247  1
  O  O39  1  0.693590  0.403986  0.428238  1
  O  O40  1  0.806411  0.903987  0.571762  1
  O  O41  1  0.896143  0.329228  0.822753  1
  O  O42  1  0.927685  0.856851  0.885645  1
  O  O43  1  0.383251  0.345988  0.314254  1
  P  P44  1  0.950954  0.595357  0.231870  1
  P  P45  1  0.966245  0.912595  0.721713  1
  P  P46  1  0.533755  0.412596  0.278288  1
  P  P47  1  0.454686  0.898771  0.233733  1
  P  P48  1  0.045313  0.398770  0.766268  1
  P  P49  1  0.030780  0.090782  0.291022  1
  P  P50  1  0.549046  0.095357  0.768129  1
  P  P51  1  0.469221  0.590781  0.708978  1
  Ni  Ni52  1  0.080578  0.839613  0.097059  1
  Ni  Ni53  1  0.419423  0.339613  0.902940  1
  Ni  Ni54  1  0.583445  0.659477  0.093417  1
  Ni  Ni55  1  0.916555  0.159476  0.906582  1
