# generated using pymatgen
data_MnO2
_symmetry_space_group_name_H-M   'P 1'
_cell_length_a   5.82796575
_cell_length_b   5.82194620
_cell_length_c   5.83085484
_cell_angle_alpha   60.01771015
_cell_angle_beta   59.91529804
_cell_angle_gamma   60.06699730
_symmetry_Int_Tables_number   1
_chemical_formula_structural   MnO2
_chemical_formula_sum   'Mn4 O8'
_cell_volume   139.89456588
_cell_formula_units_Z   4
loop_
 _symmetry_equiv_pos_site_id
 _symmetry_equiv_pos_as_xyz
  1  'x, y, z'
loop_
 _atom_site_type_symbol
 _atom_site_label
 _atom_site_symmetry_multiplicity
 _atom_site_fract_x
 _atom_site_fract_y
 _atom_site_fract_z
 _atom_site_occupancy
  Mn  Mn0  1  0.500001  0.500000  0.499999  1
  Mn  Mn1  1  0.000000  0.500001  0.499999  1
  Mn  Mn2  1  0.500000  0.500001  0.000000  1
  Mn  Mn3  1  0.499999  0.000000  0.500001  1
  O  O4  1  0.294476  0.734618  0.735878  1
  O  O5  1  0.735027  0.735879  0.734617  1
  O  O6  1  0.734618  0.294478  0.735027  1
  O  O7  1  0.735878  0.735027  0.294478  1
  O  O8  1  0.264972  0.264123  0.265382  1
  O  O9  1  0.705523  0.265381  0.264122  1
  O  O10  1  0.264121  0.264972  0.705523  1
  O  O11  1  0.265381  0.705523  0.264974  1
