# generated using pymatgen
data_FeF3
_symmetry_space_group_name_H-M   'P 1'
_cell_length_a   5.43288576
_cell_length_b   5.43288576
_cell_length_c   5.43288576
_cell_angle_alpha   56.53755110
_cell_angle_beta   56.53755108
_cell_angle_gamma   56.53755115
_symmetry_Int_Tables_number   1
_chemical_formula_structural   FeF3
_chemical_formula_sum   'Fe2 F6'
_cell_volume   104.31753706
_cell_formula_units_Z   2
loop_
 _symmetry_equiv_pos_site_id
 _symmetry_equiv_pos_as_xyz
  1  'x, y, z'
loop_
 _atom_site_type_symbol
 _atom_site_label
 _atom_site_symmetry_multiplicity
 _atom_site_fract_x
 _atom_site_fract_y
 _atom_site_fract_z
 _atom_site_occupancy
  F  F0  1  0.864270  0.250000  0.635730  1
  F  F1  1  0.250000  0.635730  0.864270  1
  F  F2  1  0.364270  0.135730  0.750000  1
  F  F3  1  0.750000  0.364270  0.135730  1
  F  F4  1  0.135730  0.750000  0.364270  1
  F  F5  1  0.635730  0.864270  0.250000  1
  Fe  Fe6  1  0.500000  0.500000  0.500000  1
  Fe  Fe7  1  0.000000  0.000000  0.000000  1
