# generated using pymatgen
data_BiP2O7
_symmetry_space_group_name_H-M   'P 1'
_cell_length_a   5.20353334
_cell_length_b   8.81903589
_cell_length_c   7.35514716
_cell_angle_alpha   90.00000000
_cell_angle_beta   109.60216011
_cell_angle_gamma   90.00000000
_symmetry_Int_Tables_number   1
_chemical_formula_structural   BiP2O7
_chemical_formula_sum   'Bi2 P4 O14'
_cell_volume   317.96724023
_cell_formula_units_Z   2
loop_
 _symmetry_equiv_pos_site_id
 _symmetry_equiv_pos_as_xyz
  1  'x, y, z'
loop_
 _atom_site_type_symbol
 _atom_site_label
 _atom_site_symmetry_multiplicity
 _atom_site_fract_x
 _atom_site_fract_y
 _atom_site_fract_z
 _atom_site_occupancy
  Bi  Bi0  1  0.798821  0.949070  0.286399  1
  Bi  Bi1  1  0.201179  0.449070  0.713601  1
  P  P2  1  0.216451  0.732005  0.080641  1
  P  P3  1  0.783549  0.232005  0.919359  1
  P  P4  1  0.592407  0.622480  0.459384  1
  P  P5  1  0.407593  0.122480  0.540616  1
  O  O6  1  0.397635  0.625163  0.576846  1
  O  O7  1  0.622227  0.378748  0.915521  1
  O  O8  1  0.377773  0.878748  0.084479  1
  O  O9  1  0.755207  0.771522  0.495167  1
  O  O10  1  0.868076  0.149104  0.112808  1
  O  O11  1  0.958017  0.762011  0.133117  1
  O  O12  1  0.131924  0.649104  0.887192  1
  O  O13  1  0.225992  0.980751  0.505263  1
  O  O14  1  0.412452  0.613285  0.233221  1
  O  O15  1  0.602365  0.125163  0.423154  1
  O  O16  1  0.774008  0.480751  0.494737  1
  O  O17  1  0.041983  0.262011  0.866883  1
  O  O18  1  0.244793  0.271522  0.504833  1
  O  O19  1  0.587548  0.113285  0.766779  1
