# generated using pymatgen
data_LiCo(PO3)4
_symmetry_space_group_name_H-M   'P 1'
_cell_length_a   12.73813236
_cell_length_b   8.39892069
_cell_length_c   9.27823615
_cell_angle_alpha   90.00000000
_cell_angle_beta   90.00000000
_cell_angle_gamma   90.00000000
_symmetry_Int_Tables_number   1
_chemical_formula_structural   LiCo(PO3)4
_chemical_formula_sum   'Li4 Co4 P16 O48'
_cell_volume   992.64660038
_cell_formula_units_Z   4
loop_
 _symmetry_equiv_pos_site_id
 _symmetry_equiv_pos_as_xyz
  1  'x, y, z'
loop_
 _atom_site_type_symbol
 _atom_site_label
 _atom_site_symmetry_multiplicity
 _atom_site_fract_x
 _atom_site_fract_y
 _atom_site_fract_z
 _atom_site_occupancy
  Li  Li0  1  0.500000  0.503185  0.750000  1
  Li  Li1  1  0.500000  0.496815  0.250000  1
  Li  Li2  1  0.000000  0.996815  0.250000  1
  Li  Li3  1  0.000000  0.003185  0.750000  1
  Co  Co4  1  0.500000  0.867587  0.750000  1
  Co  Co5  1  0.000000  0.632413  0.250000  1
  Co  Co6  1  0.500000  0.132413  0.250000  1
  Co  Co7  1  0.000000  0.367587  0.750000  1
  P  P8  1  0.138964  0.818706  0.004847  1
  P  P9  1  0.861036  0.818706  0.495153  1
  P  P10  1  0.138964  0.181294  0.504847  1
  P  P11  1  0.638964  0.681294  0.995153  1
  P  P12  1  0.351092  0.034993  0.510670  1
  P  P13  1  0.851093  0.465007  0.489330  1
  P  P14  1  0.648907  0.034993  0.989330  1
  P  P15  1  0.361036  0.318706  0.004847  1
  P  P16  1  0.351092  0.965007  0.010670  1
  P  P17  1  0.361036  0.681294  0.504847  1
  P  P18  1  0.638964  0.318706  0.495153  1
  P  P19  1  0.148907  0.534993  0.510670  1
  P  P20  1  0.861036  0.181294  0.995153  1
  P  P21  1  0.148907  0.465007  0.010670  1
  P  P22  1  0.851093  0.534993  0.989330  1
  P  P23  1  0.648907  0.965007  0.489330  1
  O  O24  1  0.121575  0.369587  0.877502  1
  O  O25  1  0.565163  0.308994  0.366283  1
  O  O26  1  0.755561  0.104862  0.925822  1
  O  O27  1  0.820033  0.642136  0.536474  1
  O  O28  1  0.069682  0.535085  0.630821  1
  O  O29  1  0.604715  0.595717  0.125957  1
  O  O30  1  0.604715  0.404283  0.625957  1
  O  O31  1  0.320033  0.857864  0.463526  1
  O  O32  1  0.934837  0.808994  0.366283  1
  O  O33  1  0.930318  0.535085  0.869179  1
  O  O34  1  0.395285  0.404283  0.874043  1
  O  O35  1  0.179967  0.642136  0.963526  1
  O  O36  1  0.430318  0.964915  0.130821  1
  O  O37  1  0.744439  0.604862  0.925822  1
  O  O38  1  0.069682  0.464915  0.130821  1
  O  O39  1  0.895285  0.904283  0.625957  1
  O  O40  1  0.430318  0.035085  0.630821  1
  O  O41  1  0.569682  0.964915  0.369179  1
  O  O42  1  0.244439  0.104862  0.574178  1
  O  O43  1  0.755561  0.895138  0.425822  1
  O  O44  1  0.065163  0.191006  0.633717  1
  O  O45  1  0.395285  0.595717  0.374043  1
  O  O46  1  0.878425  0.630413  0.122498  1
  O  O47  1  0.121575  0.630413  0.377502  1
  O  O48  1  0.930318  0.464915  0.369179  1
  O  O49  1  0.244439  0.895138  0.074178  1
  O  O50  1  0.679967  0.857864  0.036474  1
  O  O51  1  0.679967  0.142136  0.536474  1
  O  O52  1  0.065163  0.808994  0.133717  1
  O  O53  1  0.104715  0.095717  0.374043  1
  O  O54  1  0.934837  0.191006  0.866283  1
  O  O55  1  0.320033  0.142136  0.963526  1
  O  O56  1  0.255561  0.395138  0.074178  1
  O  O57  1  0.378425  0.130413  0.377502  1
  O  O58  1  0.621575  0.130413  0.122498  1
  O  O59  1  0.744439  0.395138  0.425822  1
  O  O60  1  0.565163  0.691006  0.866283  1
  O  O61  1  0.179967  0.357864  0.463526  1
  O  O62  1  0.434837  0.308994  0.133717  1
  O  O63  1  0.434837  0.691006  0.633717  1
  O  O64  1  0.820033  0.357864  0.036474  1
  O  O65  1  0.104715  0.904283  0.874043  1
  O  O66  1  0.378425  0.869587  0.877502  1
  O  O67  1  0.878425  0.369587  0.622498  1
  O  O68  1  0.255561  0.604862  0.574178  1
  O  O69  1  0.895285  0.095717  0.125957  1
  O  O70  1  0.569682  0.035085  0.869179  1
  O  O71  1  0.621575  0.869587  0.622498  1
