# generated using pymatgen
data_CoPO4
_symmetry_space_group_name_H-M   'P 1'
_cell_length_a   7.44061888
_cell_length_b   7.44544858
_cell_length_c   9.37266362
_cell_angle_alpha   89.84759408
_cell_angle_beta   89.93500305
_cell_angle_gamma   59.95034218
_symmetry_Int_Tables_number   1
_chemical_formula_structural   CoPO4
_chemical_formula_sum   'Co6 P6 O24'
_cell_volume   449.44288610
_cell_formula_units_Z   6
loop_
 _symmetry_equiv_pos_site_id
 _symmetry_equiv_pos_as_xyz
  1  'x, y, z'
loop_
 _atom_site_type_symbol
 _atom_site_label
 _atom_site_symmetry_multiplicity
 _atom_site_fract_x
 _atom_site_fract_y
 _atom_site_fract_z
 _atom_site_occupancy
  Co  Co0  1  0.620828  0.935243  0.462313  1
  Co  Co1  1  0.379523  0.556715  0.961602  1
  Co  Co2  1  0.442634  0.620081  0.460786  1
  Co  Co3  1  0.064430  0.379168  0.962145  1
  Co  Co4  1  0.556964  0.063517  0.961406  1
  Co  Co5  1  0.935880  0.443365  0.462015  1
  P  P6  1  0.333635  0.333168  0.663663  1
  P  P7  1  0.666960  0.667100  0.776987  1
  P  P8  1  0.999922  0.000081  0.016282  1
  P  P9  1  0.333059  0.333106  0.276998  1
  P  P10  1  -0.000009  0.999951  0.516283  1
  P  P11  1  0.666515  0.666439  0.163663  1
  O  O12  1  0.115783  0.773326  0.952218  1
  O  O13  1  0.891441  0.580253  0.829823  1
  O  O14  1  0.108573  0.471431  0.329668  1
  O  O15  1  0.883936  0.889296  0.452113  1
  O  O16  1  0.888576  0.227261  0.452454  1
  O  O17  1  0.772845  0.111658  0.952254  1
  O  O18  1  0.528634  0.891402  0.829580  1
  O  O19  1  0.667269  0.667910  0.606690  1
  O  O20  1  0.129083  0.349694  0.615717  1
  O  O21  1  0.333722  0.333260  0.836116  1
  O  O22  1  0.000132  0.999133  0.675153  1
  O  O23  1  0.419946  0.108605  0.329817  1
  O  O24  1  0.332665  0.333695  0.106695  1
  O  O25  1  0.871044  0.478316  0.115731  1
  O  O26  1  0.521956  0.129129  0.615553  1
  O  O27  1  0.580085  0.529218  0.829195  1
  O  O28  1  0.349769  0.521434  0.615186  1
  O  O29  1  0.471288  0.419379  0.329165  1
  O  O30  1  0.666219  0.666257  0.336117  1
  O  O31  1  0.226861  0.884495  0.452100  1
  O  O32  1  1.000152  0.999452  0.175143  1
  O  O33  1  0.111072  0.116001  0.952161  1
  O  O34  1  0.478341  0.650560  0.115300  1
  O  O35  1  0.650229  0.870938  0.115453  1
