# generated using pymatgen
data_Mg2VBiO6
_symmetry_space_group_name_H-M   'P 1'
_cell_length_a   5.52008174
_cell_length_b   7.47334723
_cell_length_c   7.47334663
_cell_angle_alpha   115.14705722
_cell_angle_beta   90.00000000
_cell_angle_gamma   90.00000000
_symmetry_Int_Tables_number   1
_chemical_formula_structural   Mg2VBiO6
_chemical_formula_sum   'Mg4 V2 Bi2 O12'
_cell_volume   279.08081537
_cell_formula_units_Z   2
loop_
 _symmetry_equiv_pos_site_id
 _symmetry_equiv_pos_as_xyz
  1  'x, y, z'
loop_
 _atom_site_type_symbol
 _atom_site_label
 _atom_site_symmetry_multiplicity
 _atom_site_fract_x
 _atom_site_fract_y
 _atom_site_fract_z
 _atom_site_occupancy
  Mg  Mg0  1  0.750000  0.101644  0.282490  1
  Mg  Mg1  1  0.249999  0.898355  0.717510  1
  Mg  Mg2  1  0.750000  0.717510  0.898355  1
  Mg  Mg3  1  0.249999  0.282489  0.101644  1
  V  V4  1  0.750000  0.198699  0.801302  1
  V  V5  1  0.249999  0.801302  0.198698  1
  Bi  Bi6  1  0.249999  0.410496  0.589505  1
  Bi  Bi7  1  0.750000  0.589504  0.410496  1
  O  O8  1  0.750000  0.102182  0.548117  1
  O  O9  1  0.249999  0.897819  0.451883  1
  O  O10  1  0.249999  0.548116  0.102180  1
  O  O11  1  0.750000  0.451883  0.897819  1
  O  O12  1  0.989374  0.882220  0.117781  1
  O  O13  1  0.489373  0.117781  0.882220  1
  O  O14  1  0.010627  0.117781  0.882220  1
  O  O15  1  0.510626  0.882220  0.117781  1
  O  O16  1  0.500000  0.328550  0.328550  1
  O  O17  1  0.000000  0.671450  0.671450  1
  O  O18  1  0.000000  0.328550  0.328550  1
  O  O19  1  0.500000  0.671450  0.671450  1
