# generated using pymatgen
data_LiTi2(PO4)3
_symmetry_space_group_name_H-M   'P 1'
_cell_length_a   8.57680860
_cell_length_b   8.69797219
_cell_length_c   12.07757063
_cell_angle_alpha   90.00000000
_cell_angle_beta   89.49671685
_cell_angle_gamma   90.00000000
_symmetry_Int_Tables_number   1
_chemical_formula_structural   LiTi2(PO4)3
_chemical_formula_sum   'Li4 Ti8 P12 O48'
_cell_volume   900.96218745
_cell_formula_units_Z   4
loop_
 _symmetry_equiv_pos_site_id
 _symmetry_equiv_pos_as_xyz
  1  'x, y, z'
loop_
 _atom_site_type_symbol
 _atom_site_label
 _atom_site_symmetry_multiplicity
 _atom_site_fract_x
 _atom_site_fract_y
 _atom_site_fract_z
 _atom_site_occupancy
  Li  Li0  1  0.200349  0.781001  0.818893  1
  Li  Li1  1  0.299651  0.281001  0.681107  1
  Li  Li2  1  0.700349  0.718999  0.318893  1
  Li  Li3  1  0.799651  0.218999  0.181107  1
  O  O4  1  0.066208  0.891596  0.129673  1
  O  O5  1  0.061662  0.866168  0.560435  1
  O  O6  1  0.073491  0.669433  0.405238  1
  O  O7  1  0.072213  0.587751  0.837163  1
  O  O8  1  0.109734  0.362723  0.427236  1
  O  O9  1  0.127260  0.206633  0.162188  1
  O  O10  1  0.152921  0.428149  0.027318  1
  O  O11  1  0.158285  0.989972  0.763436  1
  O  O12  1  0.163435  0.167330  0.572997  1
  O  O13  1  0.172314  0.268191  0.822526  1
  O  O14  1  0.198860  0.478694  0.228489  1
  O  O15  1  0.193530  0.052476  0.962069  1
  O  O16  1  0.301140  0.978694  0.271511  1
  O  O17  1  0.306470  0.552476  0.537931  1
  O  O18  1  0.327686  0.768191  0.677474  1
  O  O19  1  0.336565  0.667330  0.927003  1
  O  O20  1  0.341715  0.489972  0.736564  1
  O  O21  1  0.347079  0.928149  0.472682  1
  O  O22  1  0.372740  0.706633  0.337812  1
  O  O23  1  0.390266  0.862723  0.072764  1
  O  O24  1  0.426509  0.169433  0.094762  1
  O  O25  1  0.427787  0.087751  0.662837  1
  O  O26  1  0.433792  0.391596  0.370327  1
  O  O27  1  0.438338  0.366168  0.939565  1
  O  O28  1  0.561662  0.633832  0.060435  1
  O  O29  1  0.566208  0.608404  0.629673  1
  O  O30  1  0.572213  0.912249  0.337163  1
  O  O31  1  0.573491  0.830567  0.905238  1
  O  O32  1  0.609734  0.137277  0.927236  1
  O  O33  1  0.627260  0.293367  0.662188  1
  O  O34  1  0.652921  0.071851  0.527318  1
  O  O35  1  0.658285  0.510028  0.263436  1
  O  O36  1  0.663435  0.332670  0.072997  1
  O  O37  1  0.672314  0.231809  0.322526  1
  O  O38  1  0.693531  0.447524  0.462069  1
  O  O39  1  0.698860  0.021306  0.728489  1
  O  O40  1  0.806469  0.947524  0.037931  1
  O  O41  1  0.801140  0.521306  0.771511  1
  O  O42  1  0.827686  0.731809  0.177474  1
  O  O43  1  0.836565  0.832670  0.427003  1
  O  O44  1  0.841715  0.010028  0.236564  1
  O  O45  1  0.847079  0.571851  0.972682  1
  O  O46  1  0.872740  0.793367  0.837812  1
  O  O47  1  0.890266  0.637277  0.572764  1
  O  O48  1  0.927787  0.412249  0.162837  1
  O  O49  1  0.926509  0.330567  0.594762  1
  O  O50  1  0.938338  0.133832  0.439565  1
  O  O51  1  0.933792  0.108404  0.870327  1
  P  P52  1  0.031687  0.251298  0.509077  1
  P  P53  1  0.104541  0.381089  0.146959  1
  P  P54  1  0.111955  0.105655  0.856318  1
  P  P55  1  0.388045  0.605655  0.643682  1
  P  P56  1  0.395459  0.881089  0.353041  1
  P  P57  1  0.468313  0.751298  0.990923  1
  P  P58  1  0.531687  0.248702  0.009077  1
  P  P59  1  0.604541  0.118911  0.646959  1
  P  P60  1  0.611955  0.394345  0.356318  1
  P  P61  1  0.888045  0.894345  0.143682  1
  P  P62  1  0.895459  0.618911  0.853041  1
  P  P63  1  0.968313  0.748702  0.490923  1
  Ti  Ti64  1  0.248343  0.524975  0.381478  1
  Ti  Ti65  1  0.251657  0.024975  0.118522  1
  Ti  Ti66  1  0.246514  0.961604  0.609176  1
  Ti  Ti67  1  0.253486  0.461604  0.890824  1
  Ti  Ti68  1  0.746514  0.538396  0.109176  1
  Ti  Ti69  1  0.753486  0.038396  0.390824  1
  Ti  Ti70  1  0.748343  0.975025  0.881478  1
  Ti  Ti71  1  0.751657  0.475025  0.618522  1
