# generated using pymatgen
data_LiVP2O7
_symmetry_space_group_name_H-M   'P 1'
_cell_length_a   5.09441763
_cell_length_b   6.81442871
_cell_length_c   8.32681102
_cell_angle_alpha   68.65011229
_cell_angle_beta   87.52476066
_cell_angle_gamma   87.61419680
_symmetry_Int_Tables_number   1
_chemical_formula_structural   LiVP2O7
_chemical_formula_sum   'Li2 V2 P4 O14'
_cell_volume   268.87679880
_cell_formula_units_Z   2
loop_
 _symmetry_equiv_pos_site_id
 _symmetry_equiv_pos_as_xyz
  1  'x, y, z'
loop_
 _atom_site_type_symbol
 _atom_site_label
 _atom_site_symmetry_multiplicity
 _atom_site_fract_x
 _atom_site_fract_y
 _atom_site_fract_z
 _atom_site_occupancy
  Li  Li0  1  0.277804  0.822105  0.000922  1
  Li  Li1  1  0.789495  0.184627  0.432642  1
  O  O2  1  0.439791  0.969021  0.293008  1
  O  O3  1  0.116414  0.658982  0.224025  1
  O  O4  1  0.151971  0.297038  0.469821  1
  O  O5  1  0.285655  0.352280  0.159488  1
  O  O6  1  0.270447  0.118000  0.990543  1
  O  O7  1  0.056724  0.932929  0.790638  1
  O  O8  1  0.439481  0.481370  0.679574  1
  O  O9  1  0.569674  0.496257  0.327176  1
  O  O10  1  0.587553  0.054229  0.696986  1
  O  O11  1  0.952117  0.067089  0.246427  1
  O  O12  1  0.707296  0.662354  0.824748  1
  O  O13  1  0.826213  0.706632  0.517678  1
  O  O14  1  0.907126  0.357344  0.764920  1
  O  O15  1  0.679093  0.853530  0.017375  1
  P  P16  1  0.235487  0.113918  0.173683  1
  P  P17  1  0.281588  0.455736  0.306923  1
  P  P18  1  0.720582  0.545299  0.687207  1
  P  P19  1  0.762991  0.889905  0.829823  1
  V  V20  1  0.241453  0.222074  0.728566  1
  V  V21  1  0.757847  0.793297  0.271724  1
