# generated using pymatgen
data_LiFe(PO3)4
_symmetry_space_group_name_H-M   'P 1'
_cell_length_a   5.24022198
_cell_length_b   13.70751028
_cell_length_c   7.35653669
_cell_angle_alpha   90.00000000
_cell_angle_beta   98.24176546
_cell_angle_gamma   90.00000000
_symmetry_Int_Tables_number   1
_chemical_formula_structural   LiFe(PO3)4
_chemical_formula_sum   'Li2 Fe2 P8 O24'
_cell_volume   522.96539629
_cell_formula_units_Z   2
loop_
 _symmetry_equiv_pos_site_id
 _symmetry_equiv_pos_as_xyz
  1  'x, y, z'
loop_
 _atom_site_type_symbol
 _atom_site_label
 _atom_site_symmetry_multiplicity
 _atom_site_fract_x
 _atom_site_fract_y
 _atom_site_fract_z
 _atom_site_occupancy
  Li  Li0  1  0.356878  0.491851  0.884772  1
  Li  Li1  1  0.643121  0.991850  0.115227  1
  O  O2  1  0.290313  0.890572  0.509439  1
  O  O3  1  0.995180  0.638590  0.228640  1
  O  O4  1  0.004819  0.138590  0.771359  1
  O  O5  1  0.046512  0.732948  0.945855  1
  O  O6  1  0.027809  0.890428  0.772705  1
  O  O7  1  0.070216  0.513546  0.483549  1
  O  O8  1  0.184144  0.381586  0.942230  1
  O  O9  1  0.191543  0.343462  0.549602  1
  O  O10  1  0.208828  0.682214  0.554844  1
  O  O11  1  0.276695  0.141256  0.512593  1
  O  O12  1  0.626599  0.782829  0.770405  1
  O  O13  1  0.373400  0.282830  0.229596  1
  O  O14  1  0.374996  0.755535  0.233125  1
  O  O15  1  0.352647  0.597775  0.038158  1
  O  O16  1  0.972190  0.390428  0.227296  1
  O  O17  1  0.625005  0.255535  0.766874  1
  O  O18  1  0.953487  0.232948  0.054146  1
  O  O19  1  0.709686  0.390572  0.490562  1
  O  O20  1  0.723306  0.641256  0.487408  1
  O  O21  1  0.791173  0.182214  0.445155  1
  O  O22  1  0.808458  0.843462  0.450398  1
  O  O23  1  0.815857  0.881587  0.057770  1
  O  O24  1  0.929784  0.013546  0.516452  1
  O  O25  1  0.647352  0.097775  0.961843  1
  P  P26  1  0.856356  0.823757  0.894389  1
  P  P27  1  0.977886  0.402923  0.444462  1
  P  P28  1  0.007778  0.125844  0.555566  1
  P  P29  1  0.022115  0.902923  0.555537  1
  P  P30  1  0.143645  0.323757  0.105611  1
  P  P31  1  0.219365  0.680447  0.114436  1
  P  P32  1  0.780634  0.180447  0.885565  1
  P  P33  1  0.992223  0.625844  0.444433  1
  Fe  Fe34  1  0.506061  0.765285  0.502077  1
  Fe  Fe35  1  0.493938  0.265285  0.497923  1
