# generated using pymatgen
data_LiTiPO4F
_symmetry_space_group_name_H-M   'P 1'
_cell_length_a   5.24987607
_cell_length_b   5.44137825
_cell_length_c   7.49272011
_cell_angle_alpha   109.49633546
_cell_angle_beta   106.20522392
_cell_angle_gamma   98.78891213
_symmetry_Int_Tables_number   1
_chemical_formula_structural   LiTiPO4F
_chemical_formula_sum   'Li2 Ti2 P2 O8 F2'
_cell_volume   186.46409494
_cell_formula_units_Z   2
loop_
 _symmetry_equiv_pos_site_id
 _symmetry_equiv_pos_as_xyz
  1  'x, y, z'
loop_
 _atom_site_type_symbol
 _atom_site_label
 _atom_site_symmetry_multiplicity
 _atom_site_fract_x
 _atom_site_fract_y
 _atom_site_fract_z
 _atom_site_occupancy
  Li  Li0  1  0.918633  0.571734  0.186322  1
  Li  Li1  1  0.081367  0.428266  0.813678  1
  Ti  Ti2  1  0.000000  0.000000  0.000000  1
  Ti  Ti3  1  0.500000  0.500000  0.500000  1
  P  P4  1  0.439256  0.121363  0.761263  1
  P  P5  1  0.560744  0.878637  0.238737  1
  O  O6  1  0.721651  0.843295  0.089176  1
  O  O7  1  0.649659  0.684756  0.343564  1
  O  O8  1  0.350341  0.315244  0.656436  1
  O  O9  1  0.644091  0.172334  0.388769  1
  O  O10  1  0.278349  0.156705  0.910824  1
  O  O11  1  0.355909  0.827666  0.611231  1
  O  O12  1  0.245604  0.773732  0.112309  1
  O  O13  1  0.754396  0.226268  0.887691  1
  F  F14  1  0.132856  0.337726  0.263049  1
  F  F15  1  0.867144  0.662274  0.736951  1
