# generated using pymatgen
data_Li5Cr2P5O18
_symmetry_space_group_name_H-M   'P 1'
_cell_length_a   9.31215522
_cell_length_b   10.62896070
_cell_length_c   6.48245929
_cell_angle_alpha   93.03929341
_cell_angle_beta   91.08238408
_cell_angle_gamma   96.02952778
_symmetry_Int_Tables_number   1
_chemical_formula_structural   Li5Cr2P5O18
_chemical_formula_sum   'Li10 Cr4 P10 O36'
_cell_volume   636.98396004
_cell_formula_units_Z   2
loop_
 _symmetry_equiv_pos_site_id
 _symmetry_equiv_pos_as_xyz
  1  'x, y, z'
loop_
 _atom_site_type_symbol
 _atom_site_label
 _atom_site_symmetry_multiplicity
 _atom_site_fract_x
 _atom_site_fract_y
 _atom_site_fract_z
 _atom_site_occupancy
  Li  Li0  1  0.062004  0.869984  0.982775  1
  Li  Li1  1  0.937998  0.130016  0.017222  1
  Li  Li2  1  0.868934  0.644382  0.177608  1
  Li  Li3  1  0.784558  0.343188  0.879760  1
  Li  Li4  1  0.724062  0.414373  0.450495  1
  Li  Li5  1  0.131066  0.355621  0.822396  1
  Li  Li6  1  0.215445  0.656812  0.120241  1
  Li  Li7  1  0.275941  0.585630  0.549504  1
  Li  Li8  1  0.372308  0.861074  0.342001  1
  Li  Li9  1  0.627694  0.138925  0.658001  1
  O  O10  1  0.319869  0.814478  0.015347  1
  O  O11  1  0.964836  0.681373  0.580828  1
  O  O12  1  0.923136  0.096171  0.340382  1
  O  O13  1  0.984096  0.314247  0.028902  1
  O  O14  1  0.015903  0.685753  0.971100  1
  O  O15  1  0.076868  0.903830  0.659617  1
  O  O16  1  0.035163  0.318629  0.419174  1
  O  O17  1  0.067558  0.166973  0.676696  1
  O  O18  1  0.109307  0.521281  0.729620  1
  O  O19  1  0.181211  0.754523  0.386052  1
  O  O20  1  0.165047  0.480142  0.220148  1
  O  O21  1  0.175343  0.045422  0.983142  1
  O  O22  1  0.890693  0.478721  0.270382  1
  O  O23  1  0.247027  0.237275  0.227793  1
  O  O24  1  0.372355  0.913961  0.667591  1
  O  O25  1  0.255969  0.020533  0.356577  1
  O  O26  1  0.338459  0.383469  0.917675  1
  O  O27  1  0.932446  0.833028  0.323304  1
  O  O28  1  0.420039  0.597249  0.257381  1
  O  O29  1  0.451234  0.693822  0.736924  1
  O  O30  1  0.403651  0.199922  0.678056  1
  O  O31  1  0.429968  0.101486  0.078888  1
  O  O32  1  0.570034  0.898513  0.921112  1
  O  O33  1  0.596349  0.800077  0.321946  1
  O  O34  1  0.548762  0.306176  0.263078  1
  O  O35  1  0.579958  0.402749  0.742621  1
  O  O36  1  0.652141  0.586628  0.459262  1
  O  O37  1  0.661538  0.616528  0.082325  1
  O  O38  1  0.744033  0.979463  0.643422  1
  O  O39  1  0.627649  0.086039  0.332408  1
  O  O40  1  0.752968  0.762721  0.772209  1
  O  O41  1  0.680132  0.185523  0.984653  1
  O  O42  1  0.824661  0.954576  0.016854  1
  O  O43  1  0.834949  0.519859  0.779851  1
  O  O44  1  0.818791  0.245474  0.613951  1
  O  O45  1  0.347856  0.413370  0.540738  1
  P  P46  1  0.581592  0.653106  0.281016  1
  P  P47  1  0.582177  0.175455  0.167427  1
  P  P48  1  0.728146  0.897399  0.831471  1
  P  P49  1  0.985480  0.598512  0.776236  1
  P  P50  1  0.047711  0.800540  0.482444  1
  P  P51  1  0.014516  0.401488  0.223766  1
  P  P52  1  0.271855  0.102599  0.168527  1
  P  P53  1  0.417823  0.824548  0.832575  1
  P  P54  1  0.418407  0.346893  0.718984  1
  P  P55  1  0.952292  0.199460  0.517558  1
  Cr  Cr56  1  0.768821  0.949413  0.331074  1
  Cr  Cr57  1  0.641918  0.598366  0.768315  1
  Cr  Cr58  1  0.358065  0.401637  0.231684  1
  Cr  Cr59  1  0.231189  0.050597  0.668905  1
