# generated using pymatgen
data_Li3Mo3(PO4)4
_symmetry_space_group_name_H-M   'P 1'
_cell_length_a   13.11083653
_cell_length_b   8.46423394
_cell_length_c   9.22646120
_cell_angle_alpha   89.94989028
_cell_angle_beta   85.68607083
_cell_angle_gamma   90.31109522
_symmetry_Int_Tables_number   1
_chemical_formula_structural   Li3Mo3(PO4)4
_chemical_formula_sum   'Li9 Mo9 P12 O48'
_cell_volume   1020.97310740
_cell_formula_units_Z   3
loop_
 _symmetry_equiv_pos_site_id
 _symmetry_equiv_pos_as_xyz
  1  'x, y, z'
loop_
 _atom_site_type_symbol
 _atom_site_label
 _atom_site_symmetry_multiplicity
 _atom_site_fract_x
 _atom_site_fract_y
 _atom_site_fract_z
 _atom_site_occupancy
  Li  Li0  1  0.164544  0.859888  0.222852  1
  Li  Li1  1  0.502301  0.140687  0.109206  1
  Li  Li2  1  0.163054  0.637494  0.747303  1
  Li  Li3  1  0.490041  0.626556  0.405830  1
  Li  Li4  1  0.832807  0.642857  0.053639  1
  Li  Li5  1  0.178139  0.372801  0.921620  1
  Li  Li6  1  0.497904  0.366652  0.591452  1
  Li  Li7  1  0.832953  0.868699  0.577906  1
  Li  Li8  1  0.837860  0.124985  0.763376  1
  O  O9  1  0.548628  0.918145  0.102173  1
  O  O10  1  0.899240  0.636910  0.840800  1
  O  O11  1  0.899271  0.923858  0.751882  1
  O  O12  1  0.938033  0.302544  0.685891  1
  O  O13  1  0.741516  0.350308  0.812816  1
  O  O14  1  0.922296  0.645750  0.514663  1
  O  O15  1  0.586094  0.649851  0.846496  1
  O  O16  1  0.399119  0.697497  0.991637  1
  O  O17  1  0.767403  0.071640  0.586364  1
  O  O18  1  0.238079  0.868667  0.007557  1
  O  O19  1  0.097461  0.372954  0.160198  1
  O  O20  1  0.112671  0.081859  0.232310  1
  O  O21  1  0.059690  0.704178  0.314496  1
  O  O22  1  0.256617  0.654443  0.185440  1
  O  O23  1  0.078370  0.349021  0.485582  1
  O  O24  1  0.410819  0.344966  0.148822  1
  O  O25  1  0.266440  0.301672  0.339719  1
  O  O26  1  0.222827  0.910461  0.417577  1
  O  O27  1  0.610739  0.302487  0.025195  1
  O  O28  1  0.769227  0.129803  0.988498  1
  O  O29  1  0.229078  0.631683  0.510705  1
  O  O30  1  0.104913  0.141101  0.661526  1
  O  O31  1  0.563464  0.629096  0.179002  1
  O  O32  1  0.427844  0.131046  0.327032  1
  O  O33  1  0.106246  0.428734  0.749926  1
  O  O34  1  0.064084  0.803132  0.823451  1
  O  O35  1  0.431363  0.419725  0.414918  1
  O  O36  1  0.392397  0.800466  0.481268  1
  O  O37  1  0.786779  0.417388  0.065520  1
  O  O38  1  0.722674  0.801768  0.144792  1
  O  O39  1  0.255904  0.854184  0.682806  1
  O  O40  1  0.590356  0.848992  0.355657  1
  O  O41  1  0.921810  0.848648  0.017733  1
  O  O42  1  0.076987  0.155936  0.977059  1
  O  O43  1  0.410841  0.146578  0.650484  1
  O  O44  1  0.748488  0.150624  0.319144  1
  O  O45  1  0.274343  0.197816  0.852531  1
  O  O46  1  0.233595  0.579755  0.920043  1
  O  O47  1  0.602851  0.197053  0.511652  1
  O  O48  1  0.563225  0.570224  0.580023  1
  O  O49  1  0.939792  0.194872  0.181549  1
  O  O50  1  0.889614  0.593085  0.249817  1
  O  O51  1  0.561270  0.857811  0.670763  1
  O  O52  1  0.437569  0.368728  0.822791  1
  O  O53  1  0.897503  0.871570  0.344365  1
  O  O54  1  0.771141  0.359184  0.494920  1
  O  O55  1  0.445306  0.090877  0.915236  1
  O  O56  1  0.728888  0.697927  0.650311  1
  P  P57  1  0.945479  0.807552  0.853024  1
  P  P58  1  0.726173  0.298908  0.973374  1
  P  P59  1  0.942982  0.703994  0.356634  1
  P  P60  1  0.612372  0.684563  0.676910  1
  P  P61  1  0.719460  0.185420  0.488045  1
  P  P62  1  0.390628  0.201536  0.809980  1
  P  P63  1  0.606967  0.798373  0.195145  1
  P  P64  1  0.275931  0.798590  0.523744  1
  P  P65  1  0.389190  0.303153  0.311786  1
  P  P66  1  0.059601  0.203424  0.136722  1
  P  P67  1  0.054385  0.314832  0.656247  1
  P  P68  1  0.276796  0.696340  0.022116  1
  Mo  Mo69  1  0.164988  0.511545  0.331809  1
  Mo  Mo70  1  0.501903  0.490336  0.003537  1
  Mo  Mo71  1  0.163411  0.134259  0.438548  1
  Mo  Mo72  1  0.168776  0.998375  0.838344  1
  Mo  Mo73  1  0.495839  0.998832  0.495182  1
  Mo  Mo74  1  0.831796  0.989779  0.162433  1
  Mo  Mo75  1  0.833281  0.365795  0.272067  1
  Mo  Mo76  1  0.502579  0.865452  0.894916  1
  Mo  Mo77  1  0.834998  0.503304  0.673102  1
