# generated using pymatgen
data_CoP2O7
_symmetry_space_group_name_H-M   'P 1'
_cell_length_a   6.96053317
_cell_length_b   8.31063685
_cell_length_c   9.64384236
_cell_angle_alpha   90.00000000
_cell_angle_beta   108.76154965
_cell_angle_gamma   90.00000000
_symmetry_Int_Tables_number   1
_chemical_formula_structural   CoP2O7
_chemical_formula_sum   'Co4 P8 O28'
_cell_volume   528.22034329
_cell_formula_units_Z   4
loop_
 _symmetry_equiv_pos_site_id
 _symmetry_equiv_pos_as_xyz
  1  'x, y, z'
loop_
 _atom_site_type_symbol
 _atom_site_label
 _atom_site_symmetry_multiplicity
 _atom_site_fract_x
 _atom_site_fract_y
 _atom_site_fract_z
 _atom_site_occupancy
  O  O0  1  0.514782  0.586379  0.356090  1
  O  O1  1  0.876427  0.609969  0.146914  1
  O  O2  1  0.870195  0.955637  0.147666  1
  O  O3  1  0.908464  0.671078  0.406151  1
  O  O4  1  0.123573  0.390031  0.853085  1
  O  O5  1  0.129804  0.044363  0.852335  1
  O  O6  1  0.091535  0.328922  0.593848  1
  O  O7  1  0.240699  0.602681  0.704417  1
  O  O8  1  0.123574  0.109969  0.353086  1
  O  O9  1  0.129805  0.455638  0.352335  1
  O  O10  1  0.091535  0.171078  0.093848  1
  O  O11  1  0.487439  0.214302  0.892438  1
  O  O12  1  0.389016  0.097006  0.635671  1
  O  O13  1  0.514782  0.913621  0.856090  1
  O  O14  1  0.240700  0.897320  0.204418  1
  O  O15  1  0.485218  0.413622  0.643910  1
  O  O16  1  0.610983  0.597007  0.864329  1
  O  O17  1  0.876427  0.890031  0.646914  1
  O  O18  1  0.487438  0.285697  0.392438  1
  O  O19  1  0.389017  0.402993  0.135671  1
  O  O20  1  0.759301  0.397320  0.295583  1
  O  O21  1  0.759302  0.102680  0.795583  1
  O  O22  1  0.485217  0.086379  0.143910  1
  O  O23  1  0.610983  0.902992  0.364329  1
  O  O24  1  0.512561  0.785698  0.107561  1
  O  O25  1  0.908465  0.828921  0.906151  1
  O  O26  1  0.870195  0.544362  0.647665  1
  O  O27  1  0.512562  0.714303  0.607562  1
  P  P28  1  0.527604  0.080564  0.793659  1
  P  P29  1  0.472395  0.919436  0.206342  1
  P  P30  1  0.527605  0.419435  0.293659  1
  P  P31  1  0.924227  0.963386  0.798258  1
  P  P32  1  0.075772  0.463385  0.701742  1
  P  P33  1  0.075773  0.036614  0.201742  1
  P  P34  1  0.472395  0.580565  0.706341  1
  P  P35  1  0.924228  0.536615  0.298258  1
  Co  Co36  1  0.713751  0.774527  0.005288  1
  Co  Co37  1  0.713752  0.725472  0.505288  1
  Co  Co38  1  0.286250  0.274528  0.494713  1
  Co  Co39  1  0.286249  0.225473  0.994713  1
