# generated using pymatgen
data_LiV(PO3)4
_symmetry_space_group_name_H-M   'P 1'
_cell_length_a   7.01761895
_cell_length_b   12.39618239
_cell_length_c   7.01761863
_cell_angle_alpha   68.79385087
_cell_angle_beta   70.55282060
_cell_angle_gamma   111.20614986
_symmetry_Int_Tables_number   1
_chemical_formula_structural   LiV(PO3)4
_chemical_formula_sum   'Li2 V2 P8 O24'
_cell_volume   448.74515451
_cell_formula_units_Z   2
loop_
 _symmetry_equiv_pos_site_id
 _symmetry_equiv_pos_as_xyz
  1  'x, y, z'
loop_
 _atom_site_type_symbol
 _atom_site_label
 _atom_site_symmetry_multiplicity
 _atom_site_fract_x
 _atom_site_fract_y
 _atom_site_fract_z
 _atom_site_occupancy
  Li  Li0  1  0.918053  0.750000  0.918053  1
  Li  Li1  1  0.081947  0.250000  0.081947  1
  V  V2  1  0.639358  0.750000  0.639358  1
  V  V3  1  0.360642  0.250000  0.360642  1
  P  P4  1  0.303548  0.033586  0.841465  1
  P  P5  1  0.696452  0.966414  0.158535  1
  P  P6  1  0.841465  0.466414  0.303548  1
  P  P7  1  0.158535  0.533586  0.696452  1
  P  P8  1  0.326075  0.528571  0.251220  1
  P  P9  1  0.251220  0.971429  0.326075  1
  P  P10  1  0.673925  0.471429  0.748780  1
  P  P11  1  0.748780  0.028571  0.673925  1
  O  O12  1  0.167377  0.895575  0.886685  1
  O  O13  1  0.999962  0.851005  0.542059  1
  O  O14  1  0.886685  0.604425  0.167377  1
  O  O15  1  0.244299  0.030253  0.087925  1
  O  O16  1  0.296740  0.649113  0.719105  1
  O  O17  1  0.000038  0.148995  0.457941  1
  O  O18  1  0.343567  0.407770  0.372328  1
  O  O19  1  0.113315  0.395575  0.832623  1
  O  O20  1  0.591979  0.093609  0.714083  1
  O  O21  1  0.285917  0.593609  0.408021  1
  O  O22  1  0.372328  0.092230  0.343567  1
  O  O23  1  0.087925  0.469747  0.244299  1
  O  O24  1  0.703260  0.350887  0.280895  1
  O  O25  1  0.719105  0.850887  0.296740  1
  O  O26  1  0.408021  0.906391  0.285917  1
  O  O27  1  0.755701  0.969747  0.912075  1
  O  O28  1  0.656433  0.592230  0.627672  1
  O  O29  1  0.280895  0.149113  0.703260  1
  O  O30  1  0.542059  0.648995  0.999962  1
  O  O31  1  0.714083  0.406391  0.591979  1
  O  O32  1  0.832623  0.104425  0.113315  1
  O  O33  1  0.457941  0.351005  0.000038  1
  O  O34  1  0.912075  0.530253  0.755701  1
  O  O35  1  0.627672  0.907770  0.656433  1
