# generated using pymatgen
data_Bi(PO3)4
_symmetry_space_group_name_H-M   'P 1'
_cell_length_a   7.84562560
_cell_length_b   7.84562559
_cell_length_c   17.59611786
_cell_angle_alpha   90.00000000
_cell_angle_beta   90.00000000
_cell_angle_gamma   96.34514823
_symmetry_Int_Tables_number   1
_chemical_formula_structural   Bi(PO3)4
_chemical_formula_sum   'Bi4 P16 O48'
_cell_volume   1076.47371019
_cell_formula_units_Z   4
loop_
 _symmetry_equiv_pos_site_id
 _symmetry_equiv_pos_as_xyz
  1  'x, y, z'
loop_
 _atom_site_type_symbol
 _atom_site_label
 _atom_site_symmetry_multiplicity
 _atom_site_fract_x
 _atom_site_fract_y
 _atom_site_fract_z
 _atom_site_occupancy
  O  O0  1  0.926341  0.107954  0.403759  1
  O  O1  1  0.937407  0.365123  0.523403  1
  O  O2  1  0.892046  0.073659  0.596241  1
  O  O3  1  0.890024  0.346993  0.806847  1
  O  O4  1  0.073659  0.892046  0.903759  1
  O  O5  1  0.062593  0.634877  0.023403  1
  O  O6  1  0.107954  0.926341  0.096241  1
  O  O7  1  0.109976  0.653007  0.306847  1
  O  O8  1  0.101194  0.634996  0.163056  1
  O  O9  1  0.134574  0.687886  0.774432  1
  O  O10  1  0.186130  0.618594  0.459909  1
  O  O11  1  0.164734  0.264282  0.613565  1
  O  O12  1  0.210234  0.466628  0.909268  1
  O  O13  1  0.251559  0.261445  0.025737  1
  O  O14  1  0.312114  0.865426  0.225568  1
  O  O15  1  0.248956  0.302703  0.319704  1
  O  O16  1  0.261445  0.251559  0.474263  1
  O  O17  1  0.865426  0.312114  0.274432  1
  O  O18  1  0.264282  0.164734  0.886435  1
  O  O19  1  0.365123  0.937407  0.976597  1
  O  O20  1  0.365004  0.898806  0.836944  1
  O  O21  1  0.302703  0.248956  0.180296  1
  O  O22  1  0.356738  0.553089  0.230662  1
  O  O23  1  0.381406  0.813870  0.540091  1
  O  O24  1  0.378243  0.497234  0.562012  1
  O  O25  1  0.446911  0.643262  0.769338  1
  O  O26  1  0.502766  0.621757  0.437988  1
  O  O27  1  0.533372  0.789766  0.090732  1
  O  O28  1  0.466628  0.210234  0.590732  1
  O  O29  1  0.497234  0.378243  0.937988  1
  O  O30  1  0.553089  0.356738  0.269338  1
  O  O31  1  0.621757  0.502766  0.062012  1
  O  O32  1  0.618594  0.186130  0.040091  1
  O  O33  1  0.643262  0.446911  0.730662  1
  O  O34  1  0.697297  0.751044  0.680296  1
  O  O35  1  0.634996  0.101194  0.336944  1
  O  O36  1  0.634877  0.062593  0.476597  1
  O  O37  1  0.735718  0.835266  0.386435  1
  O  O38  1  0.653007  0.109976  0.193153  1
  O  O39  1  0.738555  0.748441  0.974263  1
  O  O40  1  0.751044  0.697297  0.819704  1
  O  O41  1  0.687886  0.134574  0.725568  1
  O  O42  1  0.748441  0.738555  0.525737  1
  O  O43  1  0.789766  0.533372  0.409268  1
  O  O44  1  0.835266  0.735718  0.113565  1
  O  O45  1  0.813870  0.381406  0.959909  1
  O  O46  1  0.898806  0.365004  0.663056  1
  O  O47  1  0.346993  0.890024  0.693153  1
  P  P48  1  0.689160  0.217465  0.263216  1
  P  P49  1  0.739116  0.035041  0.407113  1
  P  P50  1  0.782535  0.310840  0.736784  1
  P  P51  1  0.709310  0.677484  0.446386  1
  P  P52  1  0.035041  0.739116  0.092887  1
  P  P53  1  0.217465  0.689160  0.236784  1
  P  P54  1  0.260884  0.964959  0.907113  1
  P  P55  1  0.310840  0.782535  0.763216  1
  P  P56  1  0.290690  0.322516  0.946386  1
  P  P57  1  0.356846  0.643154  0.500000  1
  P  P58  1  0.964959  0.260884  0.592887  1
  P  P59  1  0.353615  0.353615  0.250000  1
  P  P60  1  0.646385  0.646385  0.750000  1
  P  P61  1  0.677484  0.709310  0.053614  1
  P  P62  1  0.643154  0.356846  0.000000  1
  P  P63  1  0.322516  0.290690  0.553614  1
  Bi  Bi64  1  0.962114  0.608116  0.896170  1
  Bi  Bi65  1  0.608116  0.962114  0.603830  1
  Bi  Bi66  1  0.391884  0.037886  0.103830  1
  Bi  Bi67  1  0.037886  0.391884  0.396170  1
