# generated using pymatgen
data_LiMn(PO3)3
_symmetry_space_group_name_H-M   'P 1'
_cell_length_a   6.48281130
_cell_length_b   6.48261953
_cell_length_c   9.84475149
_cell_angle_alpha   90.00223071
_cell_angle_beta   89.99732228
_cell_angle_gamma   119.99947959
_symmetry_Int_Tables_number   1
_chemical_formula_structural   LiMn(PO3)3
_chemical_formula_sum   'Li2 Mn2 P6 O18'
_cell_volume   358.30393671
_cell_formula_units_Z   2
loop_
 _symmetry_equiv_pos_site_id
 _symmetry_equiv_pos_as_xyz
  1  'x, y, z'
loop_
 _atom_site_type_symbol
 _atom_site_label
 _atom_site_symmetry_multiplicity
 _atom_site_fract_x
 _atom_site_fract_y
 _atom_site_fract_z
 _atom_site_occupancy
  Li  Li0  1  0.666837  0.334098  0.500008  1
  Li  Li1  1  0.666856  0.332730  0.000005  1
  O  O2  1  0.371400  0.977793  0.118166  1
  O  O3  1  0.784186  0.014732  0.250128  1
  O  O4  1  0.022111  0.628651  0.618168  1
  O  O5  1  0.022357  0.628635  0.881778  1
  O  O6  1  0.022350  0.393700  0.381785  1
  O  O7  1  0.022125  0.393445  0.118170  1
  O  O8  1  0.371228  0.977651  0.381768  1
  O  O9  1  0.985230  0.215769  0.749879  1
  O  O10  1  0.606548  0.977934  0.881843  1
  O  O11  1  0.606262  0.977533  0.618239  1
  O  O12  1  0.230530  0.215773  0.250005  1
  O  O13  1  0.371234  0.393573  0.881774  1
  O  O14  1  0.985229  0.769432  0.249896  1
  O  O15  1  0.230535  0.014734  0.749987  1
  O  O16  1  0.606277  0.628706  0.118252  1
  O  O17  1  0.606522  0.628606  0.381863  1
  O  O18  1  0.784181  0.769428  0.750113  1
  O  O19  1  0.371388  0.393588  0.618151  1
  P  P20  1  0.726876  0.743671  0.250041  1
  P  P21  1  0.726885  0.983184  0.750014  1
  P  P22  1  0.016783  0.743663  0.750018  1
  P  P23  1  0.256296  0.983199  0.249984  1
  P  P24  1  0.256315  0.273097  0.749964  1
  P  P25  1  0.016782  0.273101  0.250012  1
  Mn  Mn26  1  0.333171  0.666821  0.499964  1
  Mn  Mn27  1  0.333509  0.666758  0.000017  1
