# generated using pymatgen
data_LiV(PO3)4
_symmetry_space_group_name_H-M   'P 1'
_cell_length_a   12.87040661
_cell_length_b   8.38693046
_cell_length_c   9.41893515
_cell_angle_alpha   90.00000000
_cell_angle_beta   90.00000000
_cell_angle_gamma   90.00000000
_symmetry_Int_Tables_number   1
_chemical_formula_structural   LiV(PO3)4
_chemical_formula_sum   'Li4 V4 P16 O48'
_cell_volume   1016.71004994
_cell_formula_units_Z   4
loop_
 _symmetry_equiv_pos_site_id
 _symmetry_equiv_pos_as_xyz
  1  'x, y, z'
loop_
 _atom_site_type_symbol
 _atom_site_label
 _atom_site_symmetry_multiplicity
 _atom_site_fract_x
 _atom_site_fract_y
 _atom_site_fract_z
 _atom_site_occupancy
  Li  Li0  1  0.500000  0.500610  0.750000  1
  Li  Li1  1  -0.000000  0.999390  0.250000  1
  Li  Li2  1  0.500000  0.499390  0.250000  1
  Li  Li3  1  -0.000000  0.000610  0.750000  1
  V  V4  1  0.500000  0.869117  0.750000  1
  V  V5  1  -0.000000  0.630883  0.250000  1
  V  V6  1  0.500000  0.130883  0.250000  1
  V  V7  1  -0.000000  0.369117  0.750000  1
  P  P8  1  0.638989  0.319727  0.495391  1
  P  P9  1  0.861011  0.819727  0.495391  1
  P  P10  1  0.849307  0.464297  0.489338  1
  P  P11  1  0.361011  0.680273  0.504609  1
  P  P12  1  0.150693  0.535703  0.510662  1
  P  P13  1  0.638989  0.680273  0.995391  1
  P  P14  1  0.349307  0.964297  0.010662  1
  P  P15  1  0.349307  0.035703  0.510662  1
  P  P16  1  0.138989  0.819727  0.004609  1
  P  P17  1  0.138989  0.180273  0.504609  1
  P  P18  1  0.650693  0.964297  0.489338  1
  P  P19  1  0.150693  0.464297  0.010662  1
  P  P20  1  0.849307  0.535703  0.989338  1
  P  P21  1  0.861011  0.180273  0.995391  1
  P  P22  1  0.361011  0.319727  0.004609  1
  P  P23  1  0.650693  0.035703  0.989338  1
  O  O24  1  0.243008  0.897088  0.073463  1
  O  O25  1  0.320265  0.857232  0.464571  1
  O  O26  1  0.394732  0.595596  0.375283  1
  O  O27  1  0.065895  0.190654  0.631499  1
  O  O28  1  0.605268  0.595596  0.124717  1
  O  O29  1  0.623359  0.868038  0.618933  1
  O  O30  1  0.072449  0.464914  0.129293  1
  O  O31  1  0.427551  0.964914  0.129293  1
  O  O32  1  0.934105  0.190654  0.868501  1
  O  O33  1  0.743008  0.397088  0.426537  1
  O  O34  1  0.743008  0.602912  0.926537  1
  O  O35  1  0.065895  0.809346  0.131499  1
  O  O36  1  0.256992  0.397088  0.073463  1
  O  O37  1  0.105268  0.095596  0.375283  1
  O  O38  1  0.894732  0.095596  0.124717  1
  O  O39  1  0.820265  0.642768  0.535429  1
  O  O40  1  0.679735  0.142768  0.535429  1
  O  O41  1  0.376641  0.131962  0.381067  1
  O  O42  1  0.565895  0.309346  0.368501  1
  O  O43  1  0.927551  0.464914  0.370707  1
  O  O44  1  0.320265  0.142768  0.964571  1
  O  O45  1  0.820265  0.357232  0.035429  1
  O  O46  1  0.679735  0.857232  0.035429  1
  O  O47  1  0.572449  0.035086  0.870707  1
  O  O48  1  0.179735  0.357232  0.464571  1
  O  O49  1  0.876641  0.631962  0.118933  1
  O  O50  1  0.256992  0.602912  0.573463  1
  O  O51  1  0.427551  0.035086  0.629293  1
  O  O52  1  0.394732  0.404404  0.875283  1
  O  O53  1  0.179735  0.642768  0.964571  1
  O  O54  1  0.756992  0.102912  0.926537  1
  O  O55  1  0.123359  0.368038  0.881067  1
  O  O56  1  0.927551  0.535086  0.870707  1
  O  O57  1  0.123359  0.631962  0.381067  1
  O  O58  1  0.072449  0.535086  0.629293  1
  O  O59  1  0.105268  0.904404  0.875283  1
  O  O60  1  0.756992  0.897088  0.426537  1
  O  O61  1  0.894732  0.904404  0.624717  1
  O  O62  1  0.565895  0.690654  0.868501  1
  O  O63  1  0.876641  0.368038  0.618933  1
  O  O64  1  0.572449  0.964914  0.370707  1
  O  O65  1  0.376641  0.868038  0.881067  1
  O  O66  1  0.243008  0.102912  0.573463  1
  O  O67  1  0.623359  0.131962  0.118933  1
  O  O68  1  0.434105  0.690654  0.631499  1
  O  O69  1  0.434105  0.309346  0.131499  1
  O  O70  1  0.605268  0.404404  0.624717  1
  O  O71  1  0.934105  0.809346  0.368501  1
