# generated using pymatgen
data_Li3Fe2(PO4)3
_symmetry_space_group_name_H-M   'P 1'
_cell_length_a   4.89004964
_cell_length_b   4.89005016
_cell_length_c   18.88889784
_cell_angle_alpha   89.75417896
_cell_angle_beta   89.75417893
_cell_angle_gamma   67.10173311
_symmetry_Int_Tables_number   1
_chemical_formula_structural   Li3Fe2(PO4)3
_chemical_formula_sum   'Li6 Fe4 P6 O24'
_cell_volume   416.08306677
_cell_formula_units_Z   2
loop_
 _symmetry_equiv_pos_site_id
 _symmetry_equiv_pos_as_xyz
  1  'x, y, z'
loop_
 _atom_site_type_symbol
 _atom_site_label
 _atom_site_symmetry_multiplicity
 _atom_site_fract_x
 _atom_site_fract_y
 _atom_site_fract_z
 _atom_site_occupancy
  Li  Li0  1  0.673060  0.673060  0.752906  1
  Li  Li1  1  0.672534  0.672534  0.419950  1
  Li  Li2  1  0.000370  0.000370  0.500702  1
  Li  Li3  1  0.326940  0.326940  0.580427  1
  Li  Li4  1  0.999630  0.999630  0.832631  1
  Li  Li5  1  0.327466  0.327466  0.913383  1
  Fe  Fe6  1  0.000938  0.000938  0.334789  1
  Fe  Fe7  1  -0.000000  -0.000000  0.166667  1
  Fe  Fe8  1  0.999062  0.999062  0.998544  1
  Fe  Fe9  1  -0.000000  -0.000000  0.666667  1
  P  P10  1  0.351313  0.351313  0.748415  1
  P  P11  1  0.651447  0.651447  0.918297  1
  P  P12  1  0.648687  0.648687  0.584918  1
  P  P13  1  0.348553  0.348553  0.415037  1
  P  P14  1  0.651747  0.651747  0.250111  1
  P  P15  1  0.348253  0.348253  0.083223  1
  O  O16  1  0.762624  0.299750  0.589235  1
  O  O17  1  0.763325  0.301744  0.923479  1
  O  O18  1  0.700250  0.237376  0.744098  1
  O  O19  1  0.766295  0.766295  0.982703  1
  O  O20  1  0.233705  0.233705  0.350630  1
  O  O21  1  0.236675  0.698256  0.409854  1
  O  O22  1  0.236388  0.236388  0.148418  1
  O  O23  1  0.759952  0.759952  0.651697  1
  O  O24  1  0.754486  0.754486  0.318778  1
  O  O25  1  0.237376  0.700250  0.744098  1
  O  O26  1  0.698256  0.236675  0.409854  1
  O  O27  1  0.224417  0.700011  0.084084  1
  O  O28  1  0.775583  0.299989  0.249250  1
  O  O29  1  0.748452  0.748452  0.517305  1
  O  O30  1  0.245514  0.245514  0.014556  1
  O  O31  1  0.299989  0.775583  0.249250  1
  O  O32  1  0.301744  0.763325  0.923479  1
  O  O33  1  0.240048  0.240048  0.681636  1
  O  O34  1  0.700011  0.224417  0.084084  1
  O  O35  1  0.299750  0.762624  0.589235  1
  O  O36  1  0.746088  0.746088  0.849215  1
  O  O37  1  0.251548  0.251548  0.816028  1
  O  O38  1  0.763612  0.763612  0.184915  1
  O  O39  1  0.253912  0.253912  0.484118  1
