# generated using pymatgen
data_Mo(PO4)2
_symmetry_space_group_name_H-M   'P 1'
_cell_length_a   4.99124917
_cell_length_b   12.97715784
_cell_length_c   10.85035387
_cell_angle_alpha   90.00000000
_cell_angle_beta   95.25679210
_cell_angle_gamma   90.00000000
_symmetry_Int_Tables_number   1
_chemical_formula_structural   Mo(PO4)2
_chemical_formula_sum   'Mo4 P8 O32'
_cell_volume   699.84566556
_cell_formula_units_Z   4
loop_
 _symmetry_equiv_pos_site_id
 _symmetry_equiv_pos_as_xyz
  1  'x, y, z'
loop_
 _atom_site_type_symbol
 _atom_site_label
 _atom_site_symmetry_multiplicity
 _atom_site_fract_x
 _atom_site_fract_y
 _atom_site_fract_z
 _atom_site_occupancy
  O  O0  1  0.476571  0.665735  0.250645  1
  O  O1  1  0.023428  0.165736  0.249356  1
  O  O2  1  0.960224  0.684498  0.330648  1
  O  O3  1  0.875310  0.324941  0.115500  1
  O  O4  1  0.976572  0.834264  0.750644  1
  O  O5  1  0.039777  0.315502  0.669352  1
  O  O6  1  0.124690  0.675059  0.884500  1
  O  O7  1  0.047916  0.525974  0.633351  1
  O  O8  1  0.060493  0.552567  0.142600  1
  O  O9  1  0.040849  0.954864  0.202630  1
  O  O10  1  0.244619  0.203652  0.839536  1
  O  O11  1  0.255381  0.703653  0.660464  1
  O  O12  1  0.138816  0.096469  0.017367  1
  O  O13  1  0.452085  0.025974  0.866649  1
  O  O14  1  0.375311  0.175059  0.615499  1
  O  O15  1  0.361185  0.596468  0.482633  1
  O  O16  1  0.460223  0.815501  0.830648  1
  O  O17  1  0.523428  0.334265  0.749355  1
  O  O18  1  0.459152  0.454864  0.297370  1
  O  O19  1  0.939507  0.447433  0.857400  1
  O  O20  1  0.560494  0.947432  0.642601  1
  O  O21  1  0.540848  0.545136  0.702630  1
  O  O22  1  0.952084  0.474026  0.366649  1
  O  O23  1  0.539777  0.184499  0.169352  1
  O  O24  1  0.638815  0.403532  0.517367  1
  O  O25  1  0.624689  0.824941  0.384501  1
  O  O26  1  0.547917  0.974026  0.133351  1
  O  O27  1  0.861183  0.903531  0.982633  1
  O  O28  1  0.744618  0.296347  0.339535  1
  O  O29  1  0.755380  0.796348  0.160465  1
  O  O30  1  0.959153  0.045136  0.797370  1
  O  O31  1  0.439508  0.052568  0.357400  1
  P  P32  1  0.303159  0.588941  0.615681  1
  P  P33  1  0.696840  0.411059  0.384319  1
  P  P34  1  0.697811  0.748193  0.294374  1
  P  P35  1  0.802189  0.248192  0.205627  1
  P  P36  1  0.196839  0.088941  0.884319  1
  P  P37  1  0.197810  0.751808  0.794374  1
  P  P38  1  0.302190  0.251807  0.705626  1
  P  P39  1  0.803161  0.911059  0.115681  1
  Mo  Mo40  1  0.804443  0.428895  0.710801  1
  Mo  Mo41  1  0.695557  0.928895  0.789199  1
  Mo  Mo42  1  0.304443  0.071105  0.210800  1
  Mo  Mo43  1  0.195558  0.571105  0.289200  1
