# generated using pymatgen
data_Li3Ni3(PO4)4
_symmetry_space_group_name_H-M   'P 1'
_cell_length_a   7.60104023
_cell_length_b   8.02274225
_cell_length_c   10.20233462
_cell_angle_alpha   90.00000000
_cell_angle_beta   93.02821911
_cell_angle_gamma   90.00000000
_symmetry_Int_Tables_number   1
_chemical_formula_structural   Li3Ni3(PO4)4
_chemical_formula_sum   'Li6 Ni6 P8 O32'
_cell_volume   621.28172342
_cell_formula_units_Z   2
loop_
 _symmetry_equiv_pos_site_id
 _symmetry_equiv_pos_as_xyz
  1  'x, y, z'
loop_
 _atom_site_type_symbol
 _atom_site_label
 _atom_site_symmetry_multiplicity
 _atom_site_fract_x
 _atom_site_fract_y
 _atom_site_fract_z
 _atom_site_occupancy
  Li  Li0  1  0.097317  0.365829  0.299368  1
  Li  Li1  1  0.402683  0.865829  0.950632  1
  Li  Li2  1  0.601387  0.136808  0.552593  1
  Li  Li3  1  0.597310  0.137505  0.045909  1
  Li  Li4  1  0.898612  0.636808  0.697407  1
  Li  Li5  1  0.902690  0.637505  0.204092  1
  O  O6  1  0.238737  0.868400  0.773164  1
  O  O7  1  0.943588  0.849984  0.586099  1
  O  O8  1  0.877898  0.804295  0.344303  1
  O  O9  1  0.845266  0.425497  0.279204  1
  O  O10  1  0.894020  0.798542  0.848440  1
  O  O11  1  0.859115  0.419462  0.768367  1
  O  O12  1  0.057173  0.159032  0.904685  1
  O  O13  1  0.048191  0.145203  0.412840  1
  O  O14  1  0.113024  0.198962  0.654230  1
  O  O15  1  0.153649  0.566657  0.723531  1
  O  O16  1  0.105389  0.204733  0.151877  1
  O  O17  1  0.151132  0.574096  0.222813  1
  O  O18  1  0.953820  0.865675  0.087043  1
  O  O19  1  0.256167  0.374120  0.970608  1
  O  O20  1  0.243834  0.874119  0.279392  1
  O  O21  1  0.261263  0.368400  0.476837  1
  O  O22  1  0.346352  0.066657  0.526469  1
  O  O23  1  0.386977  0.698963  0.595769  1
  O  O24  1  0.348868  0.074096  0.027188  1
  O  O25  1  0.451809  0.645203  0.837160  1
  O  O26  1  0.747790  0.129745  0.221963  1
  O  O27  1  0.442828  0.659033  0.345315  1
  O  O28  1  0.556412  0.349984  0.663901  1
  O  O29  1  0.622102  0.304295  0.905697  1
  O  O30  1  0.546179  0.365674  0.162957  1
  O  O31  1  0.654734  0.925497  0.970797  1
  O  O32  1  0.605980  0.298542  0.401559  1
  O  O33  1  0.640885  0.919462  0.481632  1
  O  O34  1  0.740614  0.621058  0.520470  1
  O  O35  1  0.759385  0.121058  0.729529  1
  O  O36  1  0.752209  0.629745  0.028037  1
  O  O37  1  0.394612  0.704733  0.098123  1
  P  P38  1  0.800015  0.798713  0.480917  1
  P  P39  1  0.810890  0.805078  0.984355  1
  P  P40  1  0.689110  0.305078  0.265644  1
  P  P41  1  0.699985  0.298713  0.769083  1
  P  P42  1  0.302279  0.695429  0.227243  1
  P  P43  1  0.306889  0.695052  0.733853  1
  P  P44  1  0.193112  0.195052  0.516146  1
  P  P45  1  0.197720  0.195429  0.022758  1
  Ni  Ni46  1  0.106421  0.359891  0.806336  1
  Ni  Ni47  1  0.393578  0.859891  0.443664  1
  Ni  Ni48  1  0.511389  0.506467  0.999341  1
  Ni  Ni49  1  0.501767  0.493768  0.502935  1
  Ni  Ni50  1  0.998233  0.993769  0.747065  1
  Ni  Ni51  1  0.988610  0.006467  0.250659  1
