# generated using pymatgen
data_Cr2P5O16
_symmetry_space_group_name_H-M   'P 1'
_cell_length_a   18.81527756
_cell_length_b   6.76677584
_cell_length_c   5.06529285
_cell_angle_alpha   90.00000000
_cell_angle_beta   89.95667017
_cell_angle_gamma   90.00000000
_symmetry_Int_Tables_number   1
_chemical_formula_structural   Cr2P5O16
_chemical_formula_sum   'Cr4 P10 O32'
_cell_volume   644.90664889
_cell_formula_units_Z   2
loop_
 _symmetry_equiv_pos_site_id
 _symmetry_equiv_pos_as_xyz
  1  'x, y, z'
loop_
 _atom_site_type_symbol
 _atom_site_label
 _atom_site_symmetry_multiplicity
 _atom_site_fract_x
 _atom_site_fract_y
 _atom_site_fract_z
 _atom_site_occupancy
  Cr  Cr0  1  0.406713  0.819738  0.743802  1
  Cr  Cr1  1  0.906713  0.180262  0.743802  1
  Cr  Cr2  1  0.593287  0.180262  0.256198  1
  Cr  Cr3  1  0.093287  0.819738  0.256198  1
  P  P4  1  0.750000  0.259192  0.000000  1
  P  P5  1  0.577876  0.876400  0.762638  1
  P  P6  1  0.250000  0.740808  0.000000  1
  P  P7  1  0.370884  0.540147  0.251862  1
  P  P8  1  0.629116  0.459853  0.748138  1
  P  P9  1  0.422124  0.123600  0.237362  1
  P  P10  1  0.129116  0.540147  0.748138  1
  P  P11  1  0.922124  0.876400  0.237362  1
  P  P12  1  0.077876  0.123600  0.762638  1
  P  P13  1  0.870884  0.459853  0.251862  1
  O  O14  1  0.492541  0.205713  0.337025  1
  O  O15  1  0.614116  0.023143  0.580736  1
  O  O16  1  0.132759  0.307820  0.787577  1
  O  O17  1  0.385884  0.976857  0.419264  1
  O  O18  1  0.418528  0.638947  0.052476  1
  O  O19  1  0.885884  0.023143  0.419264  1
  O  O20  1  0.114349  0.577871  0.459426  1
  O  O21  1  0.571919  0.946095  0.051516  1
  O  O22  1  0.385651  0.577871  0.540574  1
  O  O23  1  0.804107  0.143918  0.845209  1
  O  O24  1  0.367241  0.307820  0.212423  1
  O  O25  1  0.288636  0.590825  0.198752  1
  O  O26  1  0.428081  0.053905  0.948484  1
  O  O27  1  0.071919  0.053905  0.051516  1
  O  O28  1  0.507459  0.794287  0.662975  1
  O  O29  1  0.114116  0.976857  0.580736  1
  O  O30  1  0.992541  0.794287  0.337025  1
  O  O31  1  0.304107  0.856082  0.845209  1
  O  O32  1  0.632759  0.692180  0.787577  1
  O  O33  1  0.695893  0.143918  0.154791  1
  O  O34  1  0.885651  0.422129  0.540574  1
  O  O35  1  0.711364  0.409175  0.801248  1
  O  O36  1  0.211364  0.590825  0.801248  1
  O  O37  1  0.928081  0.946095  0.948484  1
  O  O38  1  0.918528  0.361053  0.052476  1
  O  O39  1  0.081472  0.638947  0.947524  1
  O  O40  1  0.614349  0.422129  0.459426  1
  O  O41  1  0.867241  0.692180  0.212423  1
  O  O42  1  0.195893  0.856082  0.154791  1
  O  O43  1  0.581472  0.361053  0.947524  1
  O  O44  1  0.007459  0.205713  0.662975  1
  O  O45  1  0.788636  0.409175  0.198752  1
