# generated using pymatgen
data_NiO2
_symmetry_space_group_name_H-M   'P 1'
_cell_length_a   5.61576504
_cell_length_b   5.61576469
_cell_length_c   5.61576703
_cell_angle_alpha   120.00014782
_cell_angle_beta   120.00015662
_cell_angle_gamma   89.99969526
_symmetry_Int_Tables_number   1
_chemical_formula_structural   NiO2
_chemical_formula_sum   'Ni4 O8'
_cell_volume   125.23077602
_cell_formula_units_Z   4
loop_
 _symmetry_equiv_pos_site_id
 _symmetry_equiv_pos_as_xyz
  1  'x, y, z'
loop_
 _atom_site_type_symbol
 _atom_site_label
 _atom_site_symmetry_multiplicity
 _atom_site_fract_x
 _atom_site_fract_y
 _atom_site_fract_z
 _atom_site_occupancy
  Ni  Ni0  1  0.500001  0.500001  0.000001  1
  Ni  Ni1  1  0.000001  0.000001  0.500000  1
  Ni  Ni2  1  0.000001  0.500001  0.000000  1
  Ni  Ni3  1  0.000000  0.500000  0.500000  1
  O  O4  1  0.764212  0.735788  0.028428  1
  O  O5  1  0.207360  0.735786  0.471573  1
  O  O6  1  0.235788  0.264212  0.971572  1
  O  O7  1  0.235787  0.707360  0.971573  1
  O  O8  1  0.792640  0.264214  0.528427  1
  O  O9  1  0.235788  0.264212  0.528428  1
  O  O10  1  0.764215  0.292638  0.028427  1
  O  O11  1  0.764214  0.735788  0.471574  1
