# generated using pymatgen
data_Li2CuP2O7
_symmetry_space_group_name_H-M   'P 1'
_cell_length_a   8.08850792
_cell_length_b   13.31921126
_cell_length_c   5.01269906
_cell_angle_alpha   90.00000000
_cell_angle_beta   94.07988945
_cell_angle_gamma   90.00000000
_symmetry_Int_Tables_number   1
_chemical_formula_structural   Li2CuP2O7
_chemical_formula_sum   'Li8 Cu4 P8 O28'
_cell_volume   538.66229351
_cell_formula_units_Z   4
loop_
 _symmetry_equiv_pos_site_id
 _symmetry_equiv_pos_as_xyz
  1  'x, y, z'
loop_
 _atom_site_type_symbol
 _atom_site_label
 _atom_site_symmetry_multiplicity
 _atom_site_fract_x
 _atom_site_fract_y
 _atom_site_fract_z
 _atom_site_occupancy
  Li  Li0  1  0.135286  0.887992  0.182862  1
  Li  Li1  1  0.864714  0.112008  0.817138  1
  Li  Li2  1  0.826748  0.704067  0.257880  1
  Li  Li3  1  0.673252  0.204068  0.242120  1
  Li  Li4  1  0.635286  0.612008  0.682862  1
  Li  Li5  1  0.173252  0.295932  0.742120  1
  Li  Li6  1  0.326748  0.795933  0.757880  1
  Li  Li7  1  0.364714  0.387992  0.317138  1
  O  O8  1  0.420446  0.052844  0.730934  1
  O  O9  1  0.864987  0.892402  0.133976  1
  O  O10  1  0.920446  0.447156  0.230934  1
  O  O11  1  0.953874  0.290577  0.512693  1
  O  O12  1  0.046126  0.709423  0.487307  1
  O  O13  1  0.079554  0.552844  0.769066  1
  O  O14  1  0.135013  0.107598  0.866024  1
  O  O15  1  0.156856  0.721163  0.974062  1
  O  O16  1  0.147250  0.321756  0.136808  1
  O  O17  1  0.169203  0.031837  0.403235  1
  O  O18  1  0.209315  0.921460  0.824000  1
  O  O19  1  0.290685  0.421460  0.676000  1
  O  O20  1  0.330797  0.531837  0.096765  1
  O  O21  1  0.852750  0.678244  0.863192  1
  O  O22  1  0.352750  0.821756  0.363192  1
  O  O23  1  0.364987  0.607598  0.633976  1
  O  O24  1  0.343144  0.221163  0.525938  1
  O  O25  1  0.453874  0.209423  0.012693  1
  O  O26  1  0.546126  0.790577  0.987307  1
  O  O27  1  0.579554  0.947156  0.269066  1
  O  O28  1  0.635013  0.392402  0.366024  1
  O  O29  1  0.647250  0.178244  0.636808  1
  O  O30  1  0.656856  0.778837  0.474062  1
  O  O31  1  0.669203  0.468163  0.903235  1
  O  O32  1  0.709315  0.578540  0.324000  1
  O  O33  1  0.790685  0.078540  0.176000  1
  O  O34  1  0.830797  0.968163  0.596765  1
  O  O35  1  0.843144  0.278837  0.025938  1
  P  P36  1  0.472416  0.170265  0.726431  1
  P  P37  1  0.527584  0.829735  0.273569  1
  P  P38  1  0.721759  0.475403  0.205317  1
  P  P39  1  0.778241  0.975403  0.294683  1
  P  P40  1  0.027584  0.670265  0.773569  1
  P  P41  1  0.221759  0.024597  0.705317  1
  P  P42  1  0.972416  0.329735  0.226431  1
  P  P43  1  0.278241  0.524597  0.794683  1
  Cu  Cu44  1  0.744873  0.850631  0.795301  1
  Cu  Cu45  1  0.755127  0.350631  0.704699  1
  Cu  Cu46  1  0.244873  0.649369  0.295301  1
  Cu  Cu47  1  0.255127  0.149369  0.204699  1
