# generated using pymatgen
data_Ni2P3O10
_symmetry_space_group_name_H-M   'P 1'
_cell_length_a   4.69128137
_cell_length_b   8.40902386
_cell_length_c   9.00702475
_cell_angle_alpha   90.00000000
_cell_angle_beta   98.24602389
_cell_angle_gamma   90.00000000
_symmetry_Int_Tables_number   1
_chemical_formula_structural   Ni2P3O10
_chemical_formula_sum   'Ni4 P6 O20'
_cell_volume   351.64547139
_cell_formula_units_Z   2
loop_
 _symmetry_equiv_pos_site_id
 _symmetry_equiv_pos_as_xyz
  1  'x, y, z'
loop_
 _atom_site_type_symbol
 _atom_site_label
 _atom_site_symmetry_multiplicity
 _atom_site_fract_x
 _atom_site_fract_y
 _atom_site_fract_z
 _atom_site_occupancy
  O  O0  1  0.460105  0.750000  0.025521  1
  O  O1  1  0.823016  0.902821  0.207010  1
  O  O2  1  0.823016  0.597179  0.207010  1
  O  O3  1  0.796068  0.250000  0.232471  1
  O  O4  1  0.176986  0.097180  0.792991  1
  O  O5  1  0.176986  0.402821  0.792991  1
  O  O6  1  0.203932  0.750000  0.767529  1
  O  O7  1  0.228339  0.596896  0.491235  1
  O  O8  1  0.228339  0.903104  0.491235  1
  O  O9  1  0.297573  0.250000  0.454571  1
  O  O10  1  0.314098  0.101792  0.175440  1
  O  O11  1  0.314098  0.398207  0.175440  1
  O  O12  1  0.771661  0.096896  0.508765  1
  O  O13  1  0.401090  0.750000  0.285481  1
  O  O14  1  0.598909  0.250000  0.714518  1
  O  O15  1  0.771661  0.403104  0.508765  1
  O  O16  1  0.685902  0.898207  0.824561  1
  O  O17  1  0.685902  0.601793  0.824561  1
  O  O18  1  0.702426  0.750000  0.545429  1
  O  O19  1  0.539894  0.250000  0.974480  1
  P  P20  1  0.392001  0.750000  0.463433  1
  P  P21  1  0.510369  0.750000  0.852822  1
  P  P22  1  0.489631  0.250000  0.147178  1
  P  P23  1  0.607998  0.250000  0.536568  1
  P  P24  1  0.344240  0.250000  0.814473  1
  P  P25  1  0.655759  0.750000  0.185526  1
  Ni  Ni26  1  0.952908  0.931779  0.661716  1
  Ni  Ni27  1  0.952908  0.568221  0.661716  1
  Ni  Ni28  1  0.047092  0.431778  0.338283  1
  Ni  Ni29  1  0.047092  0.068221  0.338283  1
