# generated using pymatgen
data_CrP2O7
_symmetry_space_group_name_H-M   'P 1'
_cell_length_a   7.23483431
_cell_length_b   8.04740666
_cell_length_c   9.35885606
_cell_angle_alpha   90.00000000
_cell_angle_beta   110.69337474
_cell_angle_gamma   90.00000000
_symmetry_Int_Tables_number   1
_chemical_formula_structural   CrP2O7
_chemical_formula_sum   'Cr4 P8 O28'
_cell_volume   509.73456734
_cell_formula_units_Z   4
loop_
 _symmetry_equiv_pos_site_id
 _symmetry_equiv_pos_as_xyz
  1  'x, y, z'
loop_
 _atom_site_type_symbol
 _atom_site_label
 _atom_site_symmetry_multiplicity
 _atom_site_fract_x
 _atom_site_fract_y
 _atom_site_fract_z
 _atom_site_occupancy
  Cr  Cr0  1  0.272570  0.491822  0.746973  1
  Cr  Cr1  1  0.272570  0.008178  0.246973  1
  Cr  Cr2  1  0.727425  0.991831  0.753035  1
  Cr  Cr3  1  0.727425  0.508169  0.253035  1
  P  P4  1  0.073363  0.238592  0.944230  1
  P  P5  1  0.073363  0.261408  0.444230  1
  P  P6  1  0.926653  0.738604  0.555778  1
  P  P7  1  0.926653  0.761396  0.055778  1
  P  P8  1  0.324612  0.797719  0.551198  1
  P  P9  1  0.675376  0.297719  0.948797  1
  P  P10  1  0.324612  0.702281  0.051198  1
  P  P11  1  0.675376  0.202281  0.448797  1
  O  O12  1  0.009063  0.586216  0.657301  1
  O  O13  1  0.009063  0.913784  0.157301  1
  O  O14  1  0.990931  0.086230  0.842676  1
  O  O15  1  0.990931  0.413770  0.342676  1
  O  O16  1  0.199807  0.353814  0.891687  1
  O  O17  1  0.199807  0.146186  0.391687  1
  O  O18  1  0.800210  0.853826  0.608331  1
  O  O19  1  0.800210  0.646174  0.108331  1
  O  O20  1  0.109609  0.849909  0.550838  1
  O  O21  1  0.109609  0.650091  0.050838  1
  O  O22  1  0.890400  0.349880  0.949174  1
  O  O23  1  0.890400  0.150120  0.449174  1
  O  O24  1  0.326132  0.678687  0.889099  1
  O  O25  1  0.326132  0.821313  0.389099  1
  O  O26  1  0.673848  0.178700  0.610894  1
  O  O27  1  0.673848  0.321300  0.110894  1
  O  O28  1  0.191340  0.310724  0.610393  1
  O  O29  1  0.191340  0.189276  0.110393  1
  O  O30  1  0.808679  0.810717  0.889615  1
  O  O31  1  0.808679  0.689283  0.389615  1
  O  O32  1  0.359949  0.617074  0.601216  1
  O  O33  1  0.640023  0.117079  0.898765  1
  O  O34  1  0.359949  0.882926  0.101216  1
  O  O35  1  0.640023  0.382921  0.398765  1
  O  O36  1  0.536750  0.419142  0.833060  1
  O  O37  1  0.463260  0.919123  0.666939  1
  O  O38  1  0.536750  0.080858  0.333060  1
  O  O39  1  0.463260  0.580877  0.166939  1
