# generated using pymatgen
data_Ni(PO3)3
_symmetry_space_group_name_H-M   'P 1'
_cell_length_a   6.26795761
_cell_length_b   6.26795762
_cell_length_c   6.26795761
_cell_angle_alpha   106.35552910
_cell_angle_beta   106.35552932
_cell_angle_gamma   106.35552920
_symmetry_Int_Tables_number   1
_chemical_formula_structural   Ni(PO3)3
_chemical_formula_sum   'Ni1 P3 O9'
_cell_volume   208.58067576
_cell_formula_units_Z   1
loop_
 _symmetry_equiv_pos_site_id
 _symmetry_equiv_pos_as_xyz
  1  'x, y, z'
loop_
 _atom_site_type_symbol
 _atom_site_label
 _atom_site_symmetry_multiplicity
 _atom_site_fract_x
 _atom_site_fract_y
 _atom_site_fract_z
 _atom_site_occupancy
  O  O0  1  0.353386  0.073507  0.066792  1
  O  O1  1  0.297775  0.894264  0.622917  1
  O  O2  1  0.066793  0.353386  0.073507  1
  O  O3  1  0.073507  0.066793  0.353386  1
  O  O4  1  0.654658  0.918467  0.957871  1
  O  O5  1  0.957872  0.654658  0.918467  1
  O  O6  1  0.894264  0.622915  0.297775  1
  O  O7  1  0.918466  0.957871  0.654658  1
  O  O8  1  0.622916  0.297774  0.894265  1
  P  P9  1  0.483839  0.040525  0.899873  1
  P  P10  1  0.040524  0.899872  0.483840  1
  P  P11  1  0.899873  0.483840  0.040526  1
  Ni  Ni12  1  0.002775  0.002776  0.002774  1
