# generated using pymatgen
data_Li3Mn2(PO4)3
_symmetry_space_group_name_H-M   'P 1'
_cell_length_a   8.55100999
_cell_length_b   12.51955443
_cell_length_c   8.69871381
_cell_angle_alpha   90.00000000
_cell_angle_beta   90.00000000
_cell_angle_gamma   92.47341128
_symmetry_Int_Tables_number   1
_chemical_formula_structural   Li3Mn2(PO4)3
_chemical_formula_sum   'Li12 Mn8 P12 O48'
_cell_volume   930.37178746
_cell_formula_units_Z   4
loop_
 _symmetry_equiv_pos_site_id
 _symmetry_equiv_pos_as_xyz
  1  'x, y, z'
loop_
 _atom_site_type_symbol
 _atom_site_label
 _atom_site_symmetry_multiplicity
 _atom_site_fract_x
 _atom_site_fract_y
 _atom_site_fract_z
 _atom_site_occupancy
  Li  Li0  1  0.083439  0.697478  0.089988  1
  Li  Li1  1  0.081544  0.760235  0.695129  1
  Li  Li2  1  0.211939  0.170258  0.782136  1
  Li  Li3  1  0.288061  0.329742  0.282136  1
  Li  Li4  1  0.418456  0.739765  0.195129  1
  Li  Li5  1  0.416560  0.802523  0.589989  1
  Li  Li6  1  0.583439  0.197477  0.410012  1
  Li  Li7  1  0.581544  0.260235  0.804871  1
  Li  Li8  1  0.711939  0.670258  0.717865  1
  Li  Li9  1  0.788062  0.829742  0.217865  1
  Li  Li10  1  0.918456  0.239765  0.304871  1
  Li  Li11  1  0.916560  0.302522  0.910011  1
  O  O12  1  0.171327  0.440444  0.176296  1
  O  O13  1  0.915236  0.150242  0.102493  1
  O  O14  1  0.926244  0.406536  0.319632  1
  O  O15  1  0.923722  0.837295  0.408489  1
  O  O16  1  0.899440  0.422007  0.624154  1
  O  O17  1  0.869373  0.012666  0.612490  1
  O  O18  1  0.861095  0.173979  0.782615  1
  O  O19  1  0.852683  0.801046  0.743870  1
  O  O20  1  0.050033  0.431940  0.862157  1
  O  O21  1  0.084764  0.849758  0.897507  1
  O  O22  1  0.073756  0.593464  0.680368  1
  O  O23  1  0.076279  0.162705  0.591511  1
  O  O24  1  0.100560  0.577993  0.375846  1
  O  O25  1  0.130627  0.987334  0.387509  1
  O  O26  1  0.138905  0.826021  0.217384  1
  O  O27  1  0.136894  0.249299  0.971883  1
  O  O28  1  0.147317  0.198954  0.256130  1
  O  O29  1  0.949968  0.568060  0.137843  1
  O  O30  1  0.174240  0.058975  0.037655  1
  O  O31  1  0.197219  0.807574  0.508595  1
  O  O32  1  0.302782  0.692426  0.008594  1
  O  O33  1  0.325760  0.441024  0.537654  1
  O  O34  1  0.328673  0.059556  0.676296  1
  O  O35  1  0.361095  0.673979  0.717384  1
  O  O36  1  0.352683  0.301046  0.756131  1
  O  O37  1  0.369373  0.512667  0.887509  1
  O  O38  1  0.363106  0.250701  0.471883  1
  O  O39  1  0.399440  0.922007  0.875846  1
  O  O40  1  0.426244  0.906536  0.180368  1
  O  O41  1  0.415236  0.650242  0.397507  1
  O  O42  1  0.423721  0.337296  0.091511  1
  O  O43  1  0.449967  0.068060  0.362157  1
  O  O44  1  0.550033  0.931940  0.637842  1
  O  O45  1  0.576279  0.662704  0.908489  1
  O  O46  1  0.584764  0.349758  0.602494  1
  O  O47  1  0.573757  0.093464  0.819632  1
  O  O48  1  0.600560  0.077993  0.124155  1
  O  O49  1  0.636893  0.749299  0.528116  1
  O  O50  1  0.630627  0.487333  0.112491  1
  O  O51  1  0.647318  0.698954  0.243870  1
  O  O52  1  0.638905  0.326021  0.282616  1
  O  O53  1  0.671327  0.940444  0.323705  1
  O  O54  1  0.674240  0.558976  0.462345  1
  O  O55  1  0.697219  0.307574  0.991406  1
  O  O56  1  0.802782  0.192426  0.491406  1
  O  O57  1  0.825760  0.941025  0.962346  1
  O  O58  1  0.828673  0.559556  0.823705  1
  O  O59  1  0.863106  0.750701  0.028116  1
  P  P60  1  0.961906  0.502335  0.746397  1
  P  P61  1  0.897953  0.135247  0.614002  1
  P  P62  1  0.900757  0.841088  0.905352  1
  P  P63  1  0.602047  0.364754  0.114002  1
  P  P64  1  0.599242  0.658911  0.405351  1
  P  P65  1  0.538094  0.997665  0.246396  1
  P  P66  1  0.461907  0.002335  0.753603  1
  P  P67  1  0.400758  0.341089  0.594649  1
  P  P68  1  0.038093  0.497665  0.253603  1
  P  P69  1  0.102047  0.864753  0.385998  1
  P  P70  1  0.397953  0.635246  0.885998  1
  P  P71  1  0.099242  0.158912  0.094649  1
  Mn  Mn72  1  0.248679  0.904044  0.040816  1
  Mn  Mn73  1  0.251320  0.595956  0.540816  1
  Mn  Mn74  1  0.251853  0.390419  0.955390  1
  Mn  Mn75  1  0.248146  0.109580  0.455390  1
  Mn  Mn76  1  0.751853  0.890420  0.544610  1
  Mn  Mn77  1  0.748146  0.609580  0.044610  1
  Mn  Mn78  1  0.748679  0.404044  0.459184  1
  Mn  Mn79  1  0.751320  0.095956  0.959184  1
