# generated using pymatgen
data_LiCr2(PO4)3
_symmetry_space_group_name_H-M   'P 1'
_cell_length_a   8.31430564
_cell_length_b   8.65262479
_cell_length_c   11.80487798
_cell_angle_alpha   90.00000000
_cell_angle_beta   89.94306667
_cell_angle_gamma   90.00000000
_symmetry_Int_Tables_number   1
_chemical_formula_structural   LiCr2(PO4)3
_chemical_formula_sum   'Li4 Cr8 P12 O48'
_cell_volume   849.24919666
_cell_formula_units_Z   4
loop_
 _symmetry_equiv_pos_site_id
 _symmetry_equiv_pos_as_xyz
  1  'x, y, z'
loop_
 _atom_site_type_symbol
 _atom_site_label
 _atom_site_symmetry_multiplicity
 _atom_site_fract_x
 _atom_site_fract_y
 _atom_site_fract_z
 _atom_site_occupancy
  Li  Li0  1  0.181222  0.784333  0.819462  1
  Li  Li1  1  0.818778  0.215667  0.180538  1
  Li  Li2  1  0.318778  0.284333  0.680538  1
  Li  Li3  1  0.681222  0.715667  0.319462  1
  Cr  Cr4  1  0.245634  0.527537  0.383655  1
  Cr  Cr5  1  0.745634  0.972463  0.883655  1
  Cr  Cr6  1  0.251281  0.464070  0.886395  1
  Cr  Cr7  1  0.248719  0.964070  0.613605  1
  Cr  Cr8  1  0.748719  0.535930  0.113605  1
  Cr  Cr9  1  0.254366  0.027537  0.116345  1
  Cr  Cr10  1  0.751281  0.035930  0.386395  1
  Cr  Cr11  1  0.754366  0.472463  0.616345  1
  P  P12  1  0.612196  0.390543  0.357891  1
  P  P13  1  0.112196  0.109457  0.857891  1
  P  P14  1  0.035044  0.252025  0.508922  1
  P  P15  1  0.891586  0.618220  0.852550  1
  P  P16  1  0.387804  0.609457  0.642109  1
  P  P17  1  0.464956  0.752025  0.991078  1
  P  P18  1  0.535044  0.247975  0.008922  1
  P  P19  1  0.964956  0.747975  0.491078  1
  P  P20  1  0.887804  0.890543  0.142109  1
  P  P21  1  0.608414  0.118220  0.647450  1
  P  P22  1  0.391586  0.881780  0.352550  1
  P  P23  1  0.108414  0.381780  0.147450  1
  O  O24  1  0.908710  0.634814  0.582240  1
  O  O25  1  0.933608  0.112333  0.891456  1
  O  O26  1  0.569664  0.921240  0.323963  1
  O  O27  1  0.433608  0.387667  0.391456  1
  O  O28  1  0.930336  0.421240  0.176037  1
  O  O29  1  0.277612  0.973385  0.273236  1
  O  O30  1  0.327728  0.770337  0.682006  1
  O  O31  1  0.278426  0.554008  0.544332  1
  O  O32  1  0.722388  0.026615  0.726764  1
  O  O33  1  0.672273  0.229663  0.317994  1
  O  O34  1  0.061096  0.874727  0.555210  1
  O  O35  1  0.680671  0.323689  0.067702  1
  O  O36  1  0.222388  0.473385  0.226764  1
  O  O37  1  0.591290  0.134814  0.917760  1
  O  O38  1  0.118270  0.204817  0.161331  1
  O  O39  1  0.561096  0.625273  0.055210  1
  O  O40  1  0.066392  0.887667  0.108544  1
  O  O41  1  0.430336  0.078760  0.676037  1
  O  O42  1  0.819329  0.823689  0.432298  1
  O  O43  1  0.140199  0.428865  0.024312  1
  O  O44  1  0.938904  0.125273  0.444790  1
  O  O45  1  0.860387  0.007503  0.240077  1
  O  O46  1  0.319329  0.676311  0.932298  1
  O  O47  1  0.172272  0.270337  0.817994  1
  O  O48  1  0.881730  0.795183  0.838669  1
  O  O49  1  0.777612  0.526615  0.773236  1
  O  O50  1  0.429836  0.174211  0.103241  1
  O  O51  1  0.640199  0.071135  0.524312  1
  O  O52  1  0.566392  0.612333  0.608544  1
  O  O53  1  0.639613  0.507503  0.259923  1
  O  O54  1  0.070164  0.674211  0.396759  1
  O  O55  1  0.069664  0.578760  0.823963  1
  O  O56  1  0.360387  0.492497  0.740077  1
  O  O57  1  0.438904  0.374727  0.944790  1
  O  O58  1  0.570164  0.825789  0.896759  1
  O  O59  1  0.408710  0.865186  0.082240  1
  O  O60  1  0.618270  0.295183  0.661331  1
  O  O61  1  0.180671  0.176311  0.567702  1
  O  O62  1  0.721574  0.445992  0.455668  1
  O  O63  1  0.091290  0.365186  0.417760  1
  O  O64  1  0.359801  0.928865  0.475688  1
  O  O65  1  0.139613  0.992497  0.759923  1
  O  O66  1  0.929836  0.325789  0.603241  1
  O  O67  1  0.859801  0.571135  0.975688  1
  O  O68  1  0.221574  0.054008  0.955668  1
  O  O69  1  0.778426  0.945992  0.044332  1
  O  O70  1  0.827727  0.729663  0.182006  1
  O  O71  1  0.381730  0.704817  0.338669  1
