# generated using pymatgen
data_LiMnP2O7
_symmetry_space_group_name_H-M   'P 1'
_cell_length_a   4.81257237
_cell_length_b   7.11172062
_cell_length_c   8.36790924
_cell_angle_alpha   90.00000000
_cell_angle_beta   90.00000000
_cell_angle_gamma   108.92951327
_symmetry_Int_Tables_number   1
_chemical_formula_structural   LiMnP2O7
_chemical_formula_sum   'Li2 Mn2 P4 O14'
_cell_volume   270.90847194
_cell_formula_units_Z   2
loop_
 _symmetry_equiv_pos_site_id
 _symmetry_equiv_pos_as_xyz
  1  'x, y, z'
loop_
 _atom_site_type_symbol
 _atom_site_label
 _atom_site_symmetry_multiplicity
 _atom_site_fract_x
 _atom_site_fract_y
 _atom_site_fract_z
 _atom_site_occupancy
  Li  Li0  1  0.176469  0.676055  0.860113  1
  Li  Li1  1  0.823531  0.323945  0.360113  1
  O  O2  1  0.941701  0.150015  0.830375  1
  O  O3  1  0.861110  0.106590  0.209077  1
  O  O4  1  0.058299  0.849985  0.330375  1
  O  O5  1  0.138890  0.893410  0.709077  1
  O  O6  1  0.191106  0.479673  0.035324  1
  O  O7  1  0.245126  0.489754  0.339942  1
  O  O8  1  0.385815  0.606186  0.673377  1
  O  O9  1  0.596177  0.898622  0.441279  1
  O  O10  1  0.595966  0.746966  0.159021  1
  O  O11  1  0.404034  0.253034  0.659021  1
  O  O12  1  0.403823  0.101378  0.941279  1
  O  O13  1  0.614185  0.393814  0.173377  1
  O  O14  1  0.754874  0.510246  0.839942  1
  O  O15  1  0.808894  0.520327  0.535324  1
  P  P16  1  0.598886  0.484667  0.679859  1
  P  P17  1  0.784060  0.906201  0.290855  1
  P  P18  1  0.401114  0.515333  0.179859  1
  P  P19  1  0.215940  0.093799  0.790855  1
  Mn  Mn20  1  0.208239  0.725336  0.500937  1
  Mn  Mn21  1  0.791761  0.274664  0.000937  1
