# generated using pymatgen
data_MnVO4
_symmetry_space_group_name_H-M   'P 1'
_cell_length_a   5.02326870
_cell_length_b   5.02326870
_cell_length_c   6.45329511
_cell_angle_alpha   90.00000000
_cell_angle_beta   90.00000000
_cell_angle_gamma   68.88691610
_symmetry_Int_Tables_number   1
_chemical_formula_structural   MnVO4
_chemical_formula_sum   'Mn2 V2 O8'
_cell_volume   151.90640249
_cell_formula_units_Z   2
loop_
 _symmetry_equiv_pos_site_id
 _symmetry_equiv_pos_as_xyz
  1  'x, y, z'
loop_
 _atom_site_type_symbol
 _atom_site_label
 _atom_site_symmetry_multiplicity
 _atom_site_fract_x
 _atom_site_fract_y
 _atom_site_fract_z
 _atom_site_occupancy
  O  O0  1  0.228179  0.228179  0.463219  1
  O  O1  1  0.731802  0.215254  0.250000  1
  O  O2  1  0.215254  0.731802  0.250000  1
  O  O3  1  0.268198  0.784746  0.750000  1
  O  O4  1  0.228179  0.228179  0.036781  1
  O  O5  1  0.771821  0.771821  0.963219  1
  O  O6  1  0.771821  0.771821  0.536781  1
  O  O7  1  0.784746  0.268198  0.750000  1
  V  V8  1  0.647972  0.647972  0.750000  1
  V  V9  1  0.352028  0.352028  0.250000  1
  Mn  Mn10  1  0.000000  0.000000  0.500000  1
  Mn  Mn11  1  0.000000  0.000000  0.000000  1
