# generated using pymatgen
data_Li3Mo(PO3)8
_symmetry_space_group_name_H-M   'P 1'
_cell_length_a   7.31533492
_cell_length_b   7.31533508
_cell_length_c   9.81123929
_cell_angle_alpha   70.67843312
_cell_angle_beta   81.21791743
_cell_angle_gamma   110.57745372
_symmetry_Int_Tables_number   1
_chemical_formula_structural   Li3Mo(PO3)8
_chemical_formula_sum   'Li3 Mo1 P8 O24'
_cell_volume   441.83643632
_cell_formula_units_Z   1
loop_
 _symmetry_equiv_pos_site_id
 _symmetry_equiv_pos_as_xyz
  1  'x, y, z'
loop_
 _atom_site_type_symbol
 _atom_site_label
 _atom_site_symmetry_multiplicity
 _atom_site_fract_x
 _atom_site_fract_y
 _atom_site_fract_z
 _atom_site_occupancy
  Li  Li0  1  0.952575  0.202575  0.250000  1
  Li  Li1  1  0.987125  0.009690  0.037419  1
  Li  Li2  1  0.547108  0.024543  0.462581  1
  Mo  Mo3  1  0.052379  0.802379  0.750000  1
  P  P4  1  0.731393  0.261974  0.976859  1
  P  P5  1  0.287589  0.481250  0.706112  1
  P  P6  1  0.687362  0.993701  0.793888  1
  P  P7  1  0.271335  0.720706  0.024635  1
  P  P8  1  0.312342  0.016944  0.193873  1
  P  P9  1  0.738834  0.708252  0.523141  1
  P  P10  1  0.245341  0.295970  0.475365  1
  P  P11  1  0.710817  0.506214  0.306127  1
  O  O12  1  0.160603  0.487080  0.088783  1
  O  O13  1  0.368028  0.970065  0.336164  1
  O  O14  1  0.504305  0.222539  0.046592  1
  O  O15  1  0.737670  0.310743  0.318298  1
  O  O16  1  0.296953  0.818134  0.144688  1
  O  O17  1  0.249804  0.681653  0.693651  1
  O  O18  1  0.637153  0.033091  0.650787  1
  O  O19  1  0.769132  0.550898  0.453408  1
  O  O20  1  0.129040  0.055969  0.181702  1
  O  O21  1  0.808447  0.137438  0.084384  1
  O  O22  1  0.531961  0.556513  0.667211  1
  O  O23  1  0.875304  0.943456  0.806349  1
  O  O24  1  0.075862  0.249386  0.411217  1
  O  O25  1  0.910153  0.751764  0.600417  1
  O  O26  1  0.723725  0.199173  0.832789  1
  O  O27  1  0.252462  0.090377  0.592432  1
  O  O28  1  0.182810  0.844893  0.907568  1
  O  O29  1  0.183876  0.287939  0.849213  1
  O  O30  1  0.462822  0.441641  0.355312  1
  O  O31  1  0.228630  0.442455  0.564375  1
  O  O32  1  0.852181  0.510569  0.899583  1
  O  O33  1  0.806229  0.704191  0.163836  1
  O  O34  1  0.721822  0.892831  0.415616  1
  O  O35  1  0.506830  0.793005  0.935625  1
