# generated using pymatgen
data_LiCr(PO3)3
_symmetry_space_group_name_H-M   'P 1'
_cell_length_a   8.88021817
_cell_length_b   8.44206855
_cell_length_c   8.93549133
_cell_angle_alpha   90.00000000
_cell_angle_beta   90.00000000
_cell_angle_gamma   90.00000000
_symmetry_Int_Tables_number   1
_chemical_formula_structural   LiCr(PO3)3
_chemical_formula_sum   'Li4 Cr4 P12 O36'
_cell_volume   669.87064682
_cell_formula_units_Z   4
loop_
 _symmetry_equiv_pos_site_id
 _symmetry_equiv_pos_as_xyz
  1  'x, y, z'
loop_
 _atom_site_type_symbol
 _atom_site_label
 _atom_site_symmetry_multiplicity
 _atom_site_fract_x
 _atom_site_fract_y
 _atom_site_fract_z
 _atom_site_occupancy
  Li  Li0  1  0.107952  0.877200  0.417301  1
  Li  Li1  1  0.892048  0.377200  0.082699  1
  Li  Li2  1  0.607952  0.622799  0.582699  1
  Li  Li3  1  0.392048  0.122800  0.917301  1
  O  O4  1  0.355075  0.372157  0.929502  1
  O  O5  1  0.895625  0.410280  0.835526  1
  O  O6  1  0.940688  0.616245  0.130225  1
  O  O7  1  0.984581  0.287845  0.589515  1
  O  O8  1  0.015420  0.787845  0.910485  1
  O  O9  1  0.059312  0.116244  0.369776  1
  O  O10  1  0.104375  0.910279  0.664474  1
  O  O11  1  0.116991  0.522935  0.695125  1
  O  O12  1  0.118367  0.851649  0.170440  1
  O  O13  1  0.138569  0.340070  0.120921  1
  O  O14  1  0.144925  0.627844  0.429503  1
  O  O15  1  0.150667  0.055848  0.913474  1
  O  O16  1  0.205019  0.610636  0.019211  1
  O  O17  1  0.294981  0.389364  0.519212  1
  O  O18  1  0.349334  0.944153  0.413474  1
  O  O19  1  0.604375  0.589720  0.335526  1
  O  O20  1  0.361431  0.659929  0.620921  1
  O  O21  1  0.381633  0.148351  0.670440  1
  O  O22  1  0.383010  0.477064  0.195125  1
  O  O23  1  0.395624  0.089720  0.164475  1
  O  O24  1  0.440688  0.883755  0.869776  1
  O  O25  1  0.881632  0.351650  0.329561  1
  O  O26  1  0.515420  0.712156  0.089514  1
  O  O27  1  0.559312  0.383755  0.630224  1
  O  O28  1  0.883010  0.022936  0.804874  1
  O  O29  1  0.616990  0.977064  0.304874  1
  O  O30  1  0.618368  0.648351  0.829560  1
  O  O31  1  0.638568  0.159930  0.879079  1
  O  O32  1  0.644924  0.872157  0.570498  1
  O  O33  1  0.650666  0.444152  0.086526  1
  O  O34  1  0.705019  0.889364  0.980788  1
  O  O35  1  0.794981  0.110637  0.480788  1
  O  O36  1  0.849334  0.555847  0.586527  1
  O  O37  1  0.855075  0.127844  0.070498  1
  O  O38  1  0.861431  0.840071  0.379080  1
  O  O39  1  0.484580  0.212156  0.410486  1
  P  P40  1  0.565673  0.780557  0.930027  1
  P  P41  1  0.732269  0.936230  0.440649  1
  P  P42  1  0.767731  0.063771  0.940650  1
  P  P43  1  0.934327  0.219443  0.430026  1
  P  P44  1  0.051072  0.950577  0.818101  1
  P  P45  1  0.065673  0.719442  0.069974  1
  P  P46  1  0.232268  0.563770  0.559350  1
  P  P47  1  0.267731  0.436229  0.059351  1
  P  P48  1  0.434328  0.280557  0.569974  1
  P  P49  1  0.448929  0.049423  0.318101  1
  P  P50  1  0.551071  0.549423  0.181899  1
  P  P51  1  0.948929  0.450578  0.681898  1
  Cr  Cr52  1  0.881319  0.595508  0.357848  1
  Cr  Cr53  1  0.618680  0.404491  0.857847  1
  Cr  Cr54  1  0.381319  0.904491  0.642153  1
  Cr  Cr55  1  0.118681  0.095509  0.142152  1
