# generated using pymatgen
data_Mn2P5O16
_symmetry_space_group_name_H-M   'P 1'
_cell_length_a   19.12260708
_cell_length_b   6.74952787
_cell_length_c   5.01679159
_cell_angle_alpha   90.00740334
_cell_angle_beta   90.57114462
_cell_angle_gamma   89.98568362
_symmetry_Int_Tables_number   1
_chemical_formula_structural   Mn2P5O16
_chemical_formula_sum   'Mn4 P10 O32'
_cell_volume   647.47791673
_cell_formula_units_Z   2
loop_
 _symmetry_equiv_pos_site_id
 _symmetry_equiv_pos_as_xyz
  1  'x, y, z'
loop_
 _atom_site_type_symbol
 _atom_site_label
 _atom_site_symmetry_multiplicity
 _atom_site_fract_x
 _atom_site_fract_y
 _atom_site_fract_z
 _atom_site_occupancy
  Mn  Mn0  1  0.094194  0.822885  0.258987  1
  Mn  Mn1  1  0.905806  0.177115  0.741013  1
  Mn  Mn2  1  0.594194  0.177090  0.258955  1
  Mn  Mn3  1  0.405806  0.822910  0.741045  1
  P  P4  1  0.422831  0.123139  0.234003  1
  P  P5  1  0.077098  0.123105  0.765654  1
  P  P6  1  0.870770  0.458147  0.252471  1
  P  P7  1  0.577169  0.876861  0.765997  1
  P  P8  1  0.922902  0.876895  0.234346  1
  P  P9  1  0.129230  0.541853  0.747529  1
  P  P10  1  0.370748  0.541737  0.252625  1
  P  P11  1  0.629252  0.458263  0.747375  1
  P  P12  1  0.249950  0.740737  0.000223  1
  P  P13  1  0.750050  0.259263  -0.000223  1
  O  O14  1  0.868385  0.690179  0.214404  1
  O  O15  1  0.289317  0.589295  0.198445  1
  O  O16  1  0.802644  0.140863  0.846860  1
  O  O17  1  0.613650  0.420013  0.454348  1
  O  O18  1  0.789334  0.410740  0.198487  1
  O  O19  1  0.131615  0.309821  0.785596  1
  O  O20  1  0.197356  0.859137  0.153140  1
  O  O21  1  0.614933  0.025929  0.587341  1
  O  O22  1  0.114907  0.974193  0.587471  1
  O  O23  1  0.210666  0.589260  0.801513  1
  O  O24  1  0.885093  0.025807  0.412529  1
  O  O25  1  0.302687  0.859272  0.846715  1
  O  O26  1  0.631614  0.690178  0.785597  1
  O  O27  1  0.582729  0.355714  0.945285  1
  O  O28  1  0.082755  0.644205  0.945156  1
  O  O29  1  0.385067  0.974071  0.412659  1
  O  O30  1  0.113647  0.579975  0.454338  1
  O  O31  1  0.573335  0.943945  0.058021  1
  O  O32  1  0.886353  0.420026  0.545662  1
  O  O33  1  0.368386  0.309822  0.214403  1
  O  O34  1  0.710683  0.410705  0.801555  1
  O  O35  1  0.417271  0.644286  0.054715  1
  O  O36  1  0.386350  0.579988  0.545652  1
  O  O37  1  0.491356  0.203341  0.346036  1
  O  O38  1  0.917245  0.355795  0.054844  1
  O  O39  1  0.426665  0.056055  0.941979  1
  O  O40  1  0.697313  0.140728  0.153285  1
  O  O41  1  0.073334  0.056055  0.058077  1
  O  O42  1  0.008724  0.203264  0.654072  1
  O  O43  1  0.508644  0.796659  0.653964  1
  O  O44  1  0.991276  0.796736  0.345928  1
  O  O45  1  0.926666  0.943945  0.941923  1
