# generated using pymatgen
data_Li3Mo3(PO4)4
_symmetry_space_group_name_H-M   'P 1'
_cell_length_a   7.80363918
_cell_length_b   8.44358132
_cell_length_c   10.32481073
_cell_angle_alpha   90.00000000
_cell_angle_beta   91.84691553
_cell_angle_gamma   90.00000000
_symmetry_Int_Tables_number   1
_chemical_formula_structural   Li3Mo3(PO4)4
_chemical_formula_sum   'Li6 Mo6 P8 O32'
_cell_volume   679.95519765
_cell_formula_units_Z   2
loop_
 _symmetry_equiv_pos_site_id
 _symmetry_equiv_pos_as_xyz
  1  'x, y, z'
loop_
 _atom_site_type_symbol
 _atom_site_label
 _atom_site_symmetry_multiplicity
 _atom_site_fract_x
 _atom_site_fract_y
 _atom_site_fract_z
 _atom_site_occupancy
  Li  Li0  1  0.083789  0.368985  0.291690  1
  Li  Li1  1  0.416210  0.868986  0.958310  1
  Li  Li2  1  0.610694  0.141913  0.549563  1
  Li  Li3  1  0.606359  0.128339  0.046175  1
  Li  Li4  1  0.889306  0.641914  0.700437  1
  Li  Li5  1  0.893641  0.628339  0.203825  1
  O  O6  1  0.244889  0.872483  0.768875  1
  O  O7  1  0.943456  0.847184  0.584398  1
  O  O8  1  0.864113  0.806449  0.346546  1
  O  O9  1  0.845812  0.421469  0.270081  1
  O  O10  1  0.886509  0.795604  0.848365  1
  O  O11  1  0.853455  0.420644  0.750233  1
  O  O12  1  0.069969  0.151448  0.911953  1
  O  O13  1  0.059192  0.148386  0.414107  1
  O  O14  1  0.111617  0.201826  0.651757  1
  O  O15  1  0.149015  0.589775  0.726436  1
  O  O16  1  0.118126  0.197885  0.153387  1
  O  O17  1  0.142738  0.572035  0.224752  1
  O  O18  1  0.945470  0.853297  0.085623  1
  O  O19  1  0.269050  0.360189  0.977326  1
  O  O20  1  0.230950  0.860190  0.272674  1
  O  O21  1  0.255111  0.372482  0.481124  1
  O  O22  1  0.350985  0.089775  0.523563  1
  O  O23  1  0.388383  0.701825  0.598243  1
  O  O24  1  0.357261  0.072034  0.025248  1
  O  O25  1  0.381875  0.697886  0.096613  1
  O  O26  1  0.747963  0.633859  0.024429  1
  O  O27  1  0.430031  0.651447  0.338047  1
  O  O28  1  0.556544  0.347185  0.665602  1
  O  O29  1  0.554531  0.353297  0.164376  1
  O  O30  1  0.635887  0.306449  0.903454  1
  O  O31  1  0.654188  0.921468  0.979920  1
  O  O32  1  0.613490  0.295603  0.401635  1
  O  O33  1  0.646544  0.920644  0.499767  1
  O  O34  1  0.737588  0.632249  0.522840  1
  O  O35  1  0.762411  0.132249  0.727159  1
  O  O36  1  0.752036  0.133859  0.225571  1
  O  O37  1  0.440808  0.648386  0.835893  1
  P  P38  1  0.798048  0.800656  0.485799  1
  P  P39  1  0.801993  0.805507  0.984331  1
  P  P40  1  0.698007  0.305506  0.265669  1
  P  P41  1  0.701952  0.300655  0.764201  1
  P  P42  1  0.289174  0.685881  0.224570  1
  P  P43  1  0.304294  0.703926  0.736470  1
  P  P44  1  0.195705  0.203926  0.513530  1
  P  P45  1  0.210825  0.185881  0.025430  1
  Mo  Mo46  1  0.106848  0.367340  0.806622  1
  Mo  Mo47  1  0.393152  0.867340  0.443378  1
  Mo  Mo48  1  0.504031  0.490704  0.499250  1
  Mo  Mo49  1  0.514656  0.501968  0.002111  1
  Mo  Mo50  1  0.995969  0.990704  0.750750  1
  Mo  Mo51  1  0.985343  0.001968  0.247889  1
