# generated using pymatgen
data_LiMoP2O7
_symmetry_space_group_name_H-M   'P 1'
_cell_length_a   6.55013256
_cell_length_b   6.55025877
_cell_length_c   13.49351259
_cell_angle_alpha   78.97139031
_cell_angle_beta   77.09840675
_cell_angle_gamma   98.38941021
_symmetry_Int_Tables_number   1
_chemical_formula_structural   LiMoP2O7
_chemical_formula_sum   'Li4 Mo4 P8 O28'
_cell_volume   543.03260520
_cell_formula_units_Z   4
loop_
 _symmetry_equiv_pos_site_id
 _symmetry_equiv_pos_as_xyz
  1  'x, y, z'
loop_
 _atom_site_type_symbol
 _atom_site_label
 _atom_site_symmetry_multiplicity
 _atom_site_fract_x
 _atom_site_fract_y
 _atom_site_fract_z
 _atom_site_occupancy
  Li  Li0  1  0.411243  0.024468  0.345992  1
  Li  Li1  1  0.129345  0.242702  0.846032  1
  Li  Li2  1  0.870655  0.757298  0.153967  1
  Li  Li3  1  0.588758  0.975532  0.654009  1
  O  O4  1  0.307986  0.596440  0.475119  1
  O  O5  1  0.725848  0.053558  0.382940  1
  O  O6  1  0.803646  0.196030  0.874920  1
  O  O7  1  0.546532  0.101196  0.186189  1
  O  O8  1  0.063426  0.891173  0.882991  1
  O  O9  1  0.274151  0.946443  0.617061  1
  O  O10  1  0.196354  0.803969  0.125080  1
  O  O11  1  0.453468  0.898804  0.813812  1
  O  O12  1  0.094708  0.457591  0.357389  1
  O  O13  1  0.180103  0.580857  0.806739  1
  O  O14  1  0.236660  0.617939  0.976866  1
  O  O15  1  0.936574  0.108827  0.117009  1
  O  O16  1  0.571622  0.783127  0.024885  1
  O  O17  1  0.315106  0.452079  0.142578  1
  O  O18  1  0.094814  0.213487  0.523130  1
  O  O19  1  0.570935  0.678650  0.625070  1
  O  O20  1  0.887545  0.986905  0.693258  1
  O  O21  1  0.212571  0.267304  0.686206  1
  O  O22  1  0.905292  0.542410  0.642611  1
  O  O23  1  0.112454  0.013097  0.306742  1
  O  O24  1  0.429065  0.321350  0.374930  1
  O  O25  1  0.905185  0.786514  0.476870  1
  O  O26  1  0.684894  0.547921  0.857421  1
  O  O27  1  0.428378  0.216873  0.975115  1
  O  O28  1  0.692014  0.403560  0.524881  1
  O  O29  1  0.763340  0.382061  0.023134  1
  O  O30  1  0.819897  0.419143  0.193261  1
  O  O31  1  0.787429  0.732696  0.313794  1
  P  P32  1  0.766985  0.247287  0.134839  1
  P  P33  1  0.661421  0.332338  0.927939  1
  P  P34  1  0.760236  0.589433  0.572075  1
  P  P35  1  0.117859  0.098208  0.634858  1
  P  P36  1  0.233015  0.752713  0.865161  1
  P  P37  1  0.338579  0.667662  0.072061  1
  P  P38  1  0.882140  0.901793  0.365142  1
  P  P39  1  0.239764  0.410567  0.427925  1
  Mo  Mo40  1  0.234250  0.604797  0.638207  1
  Mo  Mo41  1  0.742953  0.872470  0.861802  1
  Mo  Mo42  1  0.257047  0.127529  0.138198  1
  Mo  Mo43  1  0.765750  0.395203  0.361793  1
