# generated using pymatgen
data_LiMo(PO3)4
_symmetry_space_group_name_H-M   'P 1'
_cell_length_a   13.04951961
_cell_length_b   8.35334111
_cell_length_c   9.69043561
_cell_angle_alpha   90.00000000
_cell_angle_beta   90.00000000
_cell_angle_gamma   90.00000000
_symmetry_Int_Tables_number   1
_chemical_formula_structural   LiMo(PO3)4
_chemical_formula_sum   'Li4 Mo4 P16 O48'
_cell_volume   1056.32617334
_cell_formula_units_Z   4
loop_
 _symmetry_equiv_pos_site_id
 _symmetry_equiv_pos_as_xyz
  1  'x, y, z'
loop_
 _atom_site_type_symbol
 _atom_site_label
 _atom_site_symmetry_multiplicity
 _atom_site_fract_x
 _atom_site_fract_y
 _atom_site_fract_z
 _atom_site_occupancy
  Li  Li0  1  0.000000  0.006839  0.250000  1
  Li  Li1  1  0.000000  0.993161  0.750000  1
  Li  Li2  1  0.500000  0.493161  0.750000  1
  Li  Li3  1  0.500000  0.506839  0.250000  1
  O  O4  1  0.367325  0.871468  0.879689  1
  O  O5  1  0.898305  0.907354  0.623035  1
  O  O6  1  0.924192  0.543497  0.877824  1
  O  O7  1  0.924192  0.456503  0.377825  1
  O  O8  1  0.064844  0.181879  0.627903  1
  O  O9  1  0.064844  0.818120  0.127903  1
  O  O10  1  0.075808  0.456503  0.122176  1
  O  O11  1  0.075808  0.543497  0.622176  1
  O  O12  1  0.101695  0.092646  0.376965  1
  O  O13  1  0.101695  0.907354  0.876965  1
  O  O14  1  0.132674  0.371468  0.879689  1
  O  O15  1  0.132674  0.628532  0.379689  1
  O  O16  1  0.177357  0.351511  0.467782  1
  O  O17  1  0.177357  0.648489  0.967783  1
  O  O18  1  0.238474  0.092873  0.569569  1
  O  O19  1  0.238474  0.907127  0.069569  1
  O  O20  1  0.261526  0.407127  0.069569  1
  O  O21  1  0.261526  0.592873  0.569569  1
  O  O22  1  0.322643  0.148489  0.967783  1
  O  O23  1  0.322643  0.851511  0.467782  1
  O  O24  1  0.367325  0.128532  0.379689  1
  O  O25  1  0.935156  0.818120  0.372097  1
  O  O26  1  0.398305  0.407354  0.876965  1
  O  O27  1  0.398305  0.592646  0.376965  1
  O  O28  1  0.424193  0.043497  0.622176  1
  O  O29  1  0.424193  0.956503  0.122176  1
  O  O30  1  0.435156  0.318120  0.127903  1
  O  O31  1  0.435156  0.681879  0.627903  1
  O  O32  1  0.564844  0.318120  0.372097  1
  O  O33  1  0.564844  0.681879  0.872098  1
  O  O34  1  0.575808  0.043497  0.877824  1
  O  O35  1  0.575808  0.956503  0.377825  1
  O  O36  1  0.601695  0.407354  0.623035  1
  O  O37  1  0.601695  0.592646  0.123035  1
  O  O38  1  0.632675  0.128532  0.120310  1
  O  O39  1  0.632675  0.871468  0.620310  1
  O  O40  1  0.677356  0.148489  0.532217  1
  O  O41  1  0.677356  0.851511  0.032217  1
  O  O42  1  0.738473  0.407127  0.430432  1
  O  O43  1  0.738473  0.592873  0.930431  1
  O  O44  1  0.761526  0.092873  0.930431  1
  O  O45  1  0.761526  0.907127  0.430432  1
  O  O46  1  0.822643  0.351511  0.032217  1
  O  O47  1  0.822643  0.648489  0.532217  1
  O  O48  1  0.867325  0.371468  0.620310  1
  O  O49  1  0.867325  0.628532  0.120310  1
  O  O50  1  0.898305  0.092646  0.123035  1
  O  O51  1  0.935156  0.181879  0.872098  1
  P  P52  1  0.863481  0.826143  0.495968  1
  P  P53  1  0.863481  0.173857  0.995967  1
  P  P54  1  0.845516  0.534072  0.991522  1
  P  P55  1  0.845516  0.465928  0.491521  1
  P  P56  1  0.136519  0.173857  0.504033  1
  P  P57  1  0.136519  0.826143  0.004032  1
  P  P58  1  0.154484  0.465928  0.008479  1
  P  P59  1  0.154484  0.534072  0.508479  1
  P  P60  1  0.345516  0.034072  0.508479  1
  P  P61  1  0.345516  0.965928  0.008479  1
  P  P62  1  0.654484  0.965928  0.491521  1
  P  P63  1  0.363481  0.673857  0.504033  1
  P  P64  1  0.636520  0.326143  0.495968  1
  P  P65  1  0.636520  0.673857  0.995967  1
  P  P66  1  0.654484  0.034072  0.991522  1
  P  P67  1  0.363481  0.326143  0.004032  1
  Mo  Mo68  1  0.000000  0.371397  0.750000  1
  Mo  Mo69  1  0.000000  0.628603  0.250000  1
  Mo  Mo70  1  0.500000  0.128603  0.250000  1
  Mo  Mo71  1  0.500000  0.871397  0.750000  1
