# generated using pymatgen
data_V2P3O10
_symmetry_space_group_name_H-M   'P 1'
_cell_length_a   4.80240786
_cell_length_b   8.46540919
_cell_length_c   9.04513257
_cell_angle_alpha   90.00000000
_cell_angle_beta   98.37262660
_cell_angle_gamma   90.00000000
_symmetry_Int_Tables_number   1
_chemical_formula_structural   V2P3O10
_chemical_formula_sum   'V4 P6 O20'
_cell_volume   363.80476680
_cell_formula_units_Z   2
loop_
 _symmetry_equiv_pos_site_id
 _symmetry_equiv_pos_as_xyz
  1  'x, y, z'
loop_
 _atom_site_type_symbol
 _atom_site_label
 _atom_site_symmetry_multiplicity
 _atom_site_fract_x
 _atom_site_fract_y
 _atom_site_fract_z
 _atom_site_occupancy
  O  O0  1  0.167150  0.099247  0.785828  1
  O  O1  1  0.167150  0.400754  0.785828  1
  O  O2  1  0.226838  0.750000  0.773029  1
  O  O3  1  0.230096  0.598601  0.486450  1
  O  O4  1  0.230096  0.901398  0.486450  1
  O  O5  1  0.304471  0.250000  0.457549  1
  O  O6  1  0.311453  0.098144  0.176417  1
  O  O7  1  0.311453  0.401855  0.176417  1
  O  O8  1  0.512508  0.250000  0.973125  1
  O  O9  1  0.411879  0.750000  0.283066  1
  O  O10  1  0.588122  0.250000  0.716934  1
  O  O11  1  0.487491  0.750000  0.026875  1
  O  O12  1  0.688548  0.598144  0.823583  1
  O  O13  1  0.688548  0.901856  0.823583  1
  O  O14  1  0.695527  0.750000  0.542451  1
  O  O15  1  0.832851  0.900754  0.214172  1
  O  O16  1  0.769902  0.401399  0.513550  1
  O  O17  1  0.773162  0.250000  0.226971  1
  O  O18  1  0.832851  0.599247  0.214172  1
  O  O19  1  0.769902  0.098601  0.513550  1
  P  P20  1  0.328571  0.250000  0.813417  1
  P  P21  1  0.392196  0.750000  0.456316  1
  P  P22  1  0.539751  0.750000  0.854284  1
  P  P23  1  0.460250  0.250000  0.145716  1
  P  P24  1  0.607804  0.250000  0.543685  1
  P  P25  1  0.671428  0.750000  0.186583  1
  V  V26  1  0.038897  0.077415  0.332747  1
  V  V27  1  0.038897  0.422585  0.332747  1
  V  V28  1  0.961104  0.577416  0.667254  1
  V  V29  1  0.961104  0.922585  0.667254  1
