# generated using pymatgen
data_CrP2O7
_symmetry_space_group_name_H-M   'P 1'
_cell_length_a   9.09879537
_cell_length_b   8.32528798
_cell_length_c   6.79353688
_cell_angle_alpha   90.00000000
_cell_angle_beta   104.14758057
_cell_angle_gamma   90.00000000
_symmetry_Int_Tables_number   1
_chemical_formula_structural   CrP2O7
_chemical_formula_sum   'Cr4 P8 O28'
_cell_volume   499.00256713
_cell_formula_units_Z   4
loop_
 _symmetry_equiv_pos_site_id
 _symmetry_equiv_pos_as_xyz
  1  'x, y, z'
loop_
 _atom_site_type_symbol
 _atom_site_label
 _atom_site_symmetry_multiplicity
 _atom_site_fract_x
 _atom_site_fract_y
 _atom_site_fract_z
 _atom_site_occupancy
  Cr  Cr0  1  0.750004  0.063890  0.250409  1
  Cr  Cr1  1  0.249996  0.936110  0.749591  1
  Cr  Cr2  1  0.249996  0.563890  0.749591  1
  Cr  Cr3  1  0.750004  0.436110  0.250409  1
  P  P4  1  0.525677  0.750000  0.084885  1
  P  P5  1  0.944535  0.250000  -0.000278  1
  P  P6  1  0.973307  0.750000  0.415216  1
  P  P7  1  0.474323  0.250000  0.915115  1
  P  P8  1  0.443277  0.750000  0.497765  1
  P  P9  1  0.556723  0.250000  0.502235  1
  P  P10  1  0.055465  0.750000  0.000278  1
  P  P11  1  0.026693  0.250000  0.584784  1
  O  O12  1  0.894112  0.750000  0.870694  1
  O  O13  1  0.059964  0.750000  0.236361  1
  O  O14  1  0.611365  0.250000  0.108533  1
  O  O15  1  0.359584  0.905072  0.532179  1
  O  O16  1  0.860210  0.095000  0.033126  1
  O  O17  1  0.359584  0.594928  0.532179  1
  O  O18  1  0.640416  0.094928  0.467821  1
  O  O19  1  0.882352  0.902466  0.409418  1
  O  O20  1  0.605508  0.750000  0.624846  1
  O  O21  1  0.139790  0.595000  0.966874  1
  O  O22  1  0.394492  0.250000  0.375154  1
  O  O23  1  0.888483  0.250000  0.392847  1
  O  O24  1  0.563669  0.250000  0.739056  1
  O  O25  1  0.111517  0.750000  0.607153  1
  O  O26  1  0.383070  0.402421  0.907632  1
  O  O27  1  0.388635  0.750000  0.891467  1
  O  O28  1  0.940036  0.250000  0.763639  1
  O  O29  1  0.105888  0.250000  0.129306  1
  O  O30  1  0.436331  0.750000  0.260944  1
  O  O31  1  0.616930  0.597579  0.092368  1
  O  O32  1  0.383070  0.097579  0.907632  1
  O  O33  1  0.616930  0.902421  0.092368  1
  O  O34  1  0.640416  0.405072  0.467821  1
  O  O35  1  0.117648  0.097534  0.590582  1
  O  O36  1  0.860210  0.405000  0.033126  1
  O  O37  1  0.139790  0.905000  0.966874  1
  O  O38  1  0.117648  0.402466  0.590582  1
  O  O39  1  0.882352  0.597534  0.409418  1
