# generated using pymatgen
data_LiMnP2O7
_symmetry_space_group_name_H-M   'P 1'
_cell_length_a   6.95283000
_cell_length_b   8.07030330
_cell_length_c   9.68128322
_cell_angle_alpha   90.00036590
_cell_angle_beta   112.37249999
_cell_angle_gamma   89.99990532
_symmetry_Int_Tables_number   1
_chemical_formula_structural   LiMnP2O7
_chemical_formula_sum   'Li4 Mn4 P8 O28'
_cell_volume   502.34118954
_cell_formula_units_Z   4
loop_
 _symmetry_equiv_pos_site_id
 _symmetry_equiv_pos_as_xyz
  1  'x, y, z'
loop_
 _atom_site_type_symbol
 _atom_site_label
 _atom_site_symmetry_multiplicity
 _atom_site_fract_x
 _atom_site_fract_y
 _atom_site_fract_z
 _atom_site_occupancy
  Li  Li0  1  0.207325  0.870493  0.523783  1
  Li  Li1  1  0.207325  0.629506  0.023784  1
  Li  Li2  1  0.792676  0.370494  0.976217  1
  Li  Li3  1  0.792676  0.129506  0.476218  1
  O  O4  1  0.387072  0.081250  0.635730  1
  O  O5  1  0.848680  0.935138  0.150794  1
  O  O6  1  0.954777  0.682760  0.398089  1
  O  O7  1  0.773192  0.405173  0.288072  1
  O  O8  1  0.094646  0.413741  0.869254  1
  O  O9  1  0.151320  0.064862  0.849207  1
  O  O10  1  0.045223  0.317240  0.601911  1
  O  O11  1  0.226808  0.594827  0.711927  1
  O  O12  1  0.094647  0.086259  0.369252  1
  O  O13  1  0.151320  0.435139  0.349206  1
  O  O14  1  0.045223  0.182757  0.101911  1
  O  O15  1  0.905355  0.586259  0.130747  1
  O  O16  1  0.535966  0.228255  0.894929  1
  O  O17  1  0.532128  0.911538  0.864279  1
  O  O18  1  0.226808  0.905171  0.211927  1
  O  O19  1  0.467871  0.411537  0.635718  1
  O  O20  1  0.464033  0.728253  0.605072  1
  O  O21  1  0.612927  0.581251  0.864268  1
  O  O22  1  0.905353  0.913741  0.630748  1
  O  O23  1  0.535967  0.271747  0.394928  1
  O  O24  1  0.532130  0.588464  0.364281  1
  O  O25  1  0.773192  0.094828  0.788073  1
  O  O26  1  0.467872  0.088462  0.135721  1
  O  O27  1  0.464034  0.771746  0.105071  1
  O  O28  1  0.612927  0.918749  0.364270  1
  O  O29  1  0.954778  0.817242  0.898089  1
  O  O30  1  0.848680  0.564861  0.650794  1
  O  O31  1  0.387073  0.418748  0.135732  1
  P  P32  1  0.952820  0.538661  0.297056  1
  P  P33  1  0.952818  0.961339  0.797057  1
  P  P34  1  0.546327  0.418221  0.300057  1
  P  P35  1  0.453675  0.918222  0.199944  1
  P  P36  1  0.047180  0.461339  0.702944  1
  P  P37  1  0.047182  0.038660  0.202943  1
  P  P38  1  0.546325  0.081778  0.800056  1
  P  P39  1  0.453673  0.581779  0.699943  1
  Mn  Mn40  1  0.275975  0.235480  0.995761  1
  Mn  Mn41  1  0.275981  0.264520  0.495757  1
  Mn  Mn42  1  0.724022  0.735484  0.504245  1
  Mn  Mn43  1  0.724025  0.764518  0.004241  1
