# generated using pymatgen
data_Co3(PO4)4
_symmetry_space_group_name_H-M   'P 1'
_cell_length_a   7.78556607
_cell_length_b   7.78451620
_cell_length_c   10.32249052
_cell_angle_alpha   90.00000000
_cell_angle_beta   95.41022535
_cell_angle_gamma   90.00000000
_symmetry_Int_Tables_number   1
_chemical_formula_structural   Co3(PO4)4
_chemical_formula_sum   'Co6 P8 O32'
_cell_volume   622.82677855
_cell_formula_units_Z   2
loop_
 _symmetry_equiv_pos_site_id
 _symmetry_equiv_pos_as_xyz
  1  'x, y, z'
loop_
 _atom_site_type_symbol
 _atom_site_label
 _atom_site_symmetry_multiplicity
 _atom_site_fract_x
 _atom_site_fract_y
 _atom_site_fract_z
 _atom_site_occupancy
  O  O0  1  0.603152  0.302028  0.894223  1
  O  O1  1  0.937259  0.855826  0.097724  1
  O  O2  1  0.922465  0.859973  0.613578  1
  O  O3  1  0.882337  0.806800  0.362444  1
  O  O4  1  0.853617  0.439648  0.289677  1
  O  O5  1  0.896847  0.802028  0.855777  1
  O  O6  1  0.103341  0.130607  0.907552  1
  O  O7  1  0.052343  0.116824  0.396925  1
  O  O8  1  0.101632  0.193672  0.631547  1
  O  O9  1  0.118213  0.581612  0.700802  1
  O  O10  1  0.113838  0.171577  0.146722  1
  O  O11  1  0.164300  0.543068  0.215549  1
  O  O12  1  0.264245  0.385420  0.005424  1
  O  O13  1  0.235755  0.885419  0.744577  1
  O  O14  1  0.231899  0.849875  0.284225  1
  O  O15  1  0.268101  0.349876  0.465775  1
  O  O16  1  0.335700  0.043067  0.534451  1
  O  O17  1  0.386161  0.671577  0.603278  1
  O  O18  1  0.396659  0.630608  0.842448  1
  O  O19  1  0.754333  0.132213  0.204815  1
  O  O20  1  0.398368  0.693672  0.118454  1
  O  O21  1  0.447658  0.616825  0.353075  1
  O  O22  1  0.562740  0.355826  0.652276  1
  O  O23  1  0.828497  0.461608  0.794374  1
  O  O24  1  0.577534  0.359974  0.136422  1
  O  O25  1  0.671503  0.961609  0.955626  1
  O  O26  1  0.617663  0.306801  0.387556  1
  O  O27  1  0.646383  0.939648  0.460323  1
  O  O28  1  0.745668  0.632214  0.545185  1
  O  O29  1  0.791036  0.142745  0.743287  1
  O  O30  1  0.708965  0.642744  0.006713  1
  O  O31  1  0.381788  0.081613  0.049198  1
  P  P32  1  0.214564  0.198986  0.029180  1
  P  P33  1  0.285435  0.698986  0.720820  1
  P  P34  1  0.308504  0.678632  0.245611  1
  P  P35  1  0.696990  0.309367  0.764776  1
  P  P36  1  0.705695  0.314187  0.261748  1
  P  P37  1  0.803009  0.809367  0.985225  1
  P  P38  1  0.191495  0.178631  0.504389  1
  P  P39  1  0.794305  0.814187  0.488252  1
  Co  Co40  1  0.894844  0.648417  0.706312  1
  Co  Co41  1  0.605156  0.148417  0.043688  1
  Co  Co42  1  0.482102  0.482266  0.501822  1
  Co  Co43  1  0.476656  0.534315  0.995919  1
  Co  Co44  1  0.017899  0.982265  0.248178  1
  Co  Co45  1  0.023345  0.034315  0.754081  1
