# generated using pymatgen
data_Li3Ni2(PO4)3
_symmetry_space_group_name_H-M   'P 1'
_cell_length_a   4.89819416
_cell_length_b   4.89819417
_cell_length_c   18.80911169
_cell_angle_alpha   89.89801349
_cell_angle_beta   89.89801349
_cell_angle_gamma   65.81006599
_symmetry_Int_Tables_number   1
_chemical_formula_structural   Li3Ni2(PO4)3
_chemical_formula_sum   'Li6 Ni4 P6 O24'
_cell_volume   411.64762970
_cell_formula_units_Z   2
loop_
 _symmetry_equiv_pos_site_id
 _symmetry_equiv_pos_as_xyz
  1  'x, y, z'
loop_
 _atom_site_type_symbol
 _atom_site_label
 _atom_site_symmetry_multiplicity
 _atom_site_fract_x
 _atom_site_fract_y
 _atom_site_fract_z
 _atom_site_occupancy
  Li  Li0  1  0.327698  0.327698  0.582981  1
  Li  Li1  1  0.328864  0.328864  0.914829  1
  Li  Li2  1  0.672302  0.672302  0.750353  1
  Li  Li3  1  0.999651  0.999651  0.500259  1
  Li  Li4  1  0.000349  0.000349  0.833074  1
  Li  Li5  1  0.671136  0.671136  0.418504  1
  Ni  Ni6  1  0.000608  0.000608  0.332430  1
  Ni  Ni7  1  0.000000  0.000000  0.166667  1
  Ni  Ni8  1  0.999392  0.999392  0.000903  1
  Ni  Ni9  1  0.000000  -0.000000  0.666667  1
  P  P10  1  0.643820  0.643820  0.585554  1
  P  P11  1  0.645309  0.645309  0.250258  1
  P  P12  1  0.354691  0.354691  0.083075  1
  P  P13  1  0.356180  0.356180  0.747779  1
  P  P14  1  0.354783  0.354783  0.414574  1
  P  P15  1  0.645217  0.645217  0.918760  1
  O  O16  1  0.748854  0.748854  0.319458  1
  O  O17  1  0.256380  0.256380  0.484797  1
  O  O18  1  0.753890  0.753890  0.182978  1
  O  O19  1  0.767477  0.296664  0.920220  1
  O  O20  1  0.745380  0.745380  0.516374  1
  O  O21  1  0.704774  0.235243  0.746780  1
  O  O22  1  0.245281  0.245281  0.681653  1
  O  O23  1  0.235243  0.704774  0.746780  1
  O  O24  1  0.754719  0.754719  0.651680  1
  O  O25  1  0.296664  0.767477  0.920220  1
  O  O26  1  0.743620  0.743620  0.848537  1
  O  O27  1  0.703350  0.224066  0.083707  1
  O  O28  1  0.246110  0.246110  0.150356  1
  O  O29  1  0.295226  0.764757  0.586553  1
  O  O30  1  0.254620  0.254620  0.816960  1
  O  O31  1  0.296650  0.775934  0.249627  1
  O  O32  1  0.757724  0.757724  0.983974  1
  O  O33  1  0.242276  0.242276  0.349360  1
  O  O34  1  0.775934  0.296650  0.249627  1
  O  O35  1  0.224066  0.703350  0.083707  1
  O  O36  1  0.251146  0.251146  0.013875  1
  O  O37  1  0.232523  0.703336  0.413113  1
  O  O38  1  0.764757  0.295226  0.586553  1
  O  O39  1  0.703336  0.232523  0.413113  1
