# generated using pymatgen
data_Li2CrP2O7
_symmetry_space_group_name_H-M   'P 1'
_cell_length_a   8.94289136
_cell_length_b   8.18181887
_cell_length_c   5.04175467
_cell_angle_alpha   107.94103359
_cell_angle_beta   89.99908441
_cell_angle_gamma   66.13865072
_symmetry_Int_Tables_number   1
_chemical_formula_structural   Li2CrP2O7
_chemical_formula_sum   'Li4 Cr2 P4 O14'
_cell_volume   317.65509130
_cell_formula_units_Z   2
loop_
 _symmetry_equiv_pos_site_id
 _symmetry_equiv_pos_as_xyz
  1  'x, y, z'
loop_
 _atom_site_type_symbol
 _atom_site_label
 _atom_site_symmetry_multiplicity
 _atom_site_fract_x
 _atom_site_fract_y
 _atom_site_fract_z
 _atom_site_occupancy
  Li  Li0  1  0.552136  0.119844  0.953589  1
  Li  Li1  1  0.447916  0.880088  0.046266  1
  Li  Li2  1  0.947881  0.880151  0.333727  1
  Li  Li3  1  0.052083  0.119915  0.666185  1
  O  O4  1  0.940285  0.296185  0.052990  1
  O  O5  1  0.110458  0.855121  0.601108  1
  O  O6  1  0.889567  0.144870  0.398772  1
  O  O7  1  0.389549  0.144885  0.246049  1
  O  O8  1  0.749994  0.499984  0.518277  1
  O  O9  1  0.662792  0.287514  0.125193  1
  O  O10  1  0.059741  0.703785  0.946976  1
  O  O11  1  0.162807  0.287524  0.662302  1
  O  O12  1  0.610401  0.855125  0.753859  1
  O  O13  1  0.250012  0.500017  0.481635  1
  O  O14  1  0.837233  0.712485  0.337646  1
  O  O15  1  0.559732  0.703825  0.256830  1
  O  O16  1  0.337197  0.712477  0.874769  1
  O  O17  1  0.440273  0.296214  0.743212  1
  P  P18  1  0.315606  0.293995  0.532299  1
  P  P19  1  0.684356  0.706001  0.467652  1
  P  P20  1  0.815577  0.294014  0.261668  1
  P  P21  1  0.184443  0.705991  0.738276  1
  Cr  Cr22  1  0.000199  0.499945  0.000332  1
  Cr  Cr23  1  0.499762  0.500050  0.000389  1
