# generated using pymatgen
data_Sb(PO3)4
_symmetry_space_group_name_H-M   'P 1'
_cell_length_a   7.21408752
_cell_length_b   13.00646106
_cell_length_c   9.39510567
_cell_angle_alpha   90.00000000
_cell_angle_beta   88.04410951
_cell_angle_gamma   90.00000000
_symmetry_Int_Tables_number   1
_chemical_formula_structural   Sb(PO3)4
_chemical_formula_sum   'Sb4 P16 O48'
_cell_volume   881.02681506
_cell_formula_units_Z   4
loop_
 _symmetry_equiv_pos_site_id
 _symmetry_equiv_pos_as_xyz
  1  'x, y, z'
loop_
 _atom_site_type_symbol
 _atom_site_label
 _atom_site_symmetry_multiplicity
 _atom_site_fract_x
 _atom_site_fract_y
 _atom_site_fract_z
 _atom_site_occupancy
  Sb  Sb0  1  0.994248  0.775748  0.982595  1
  Sb  Sb1  1  0.494248  0.724252  0.482595  1
  Sb  Sb2  1  0.005752  0.224252  0.017405  1
  Sb  Sb3  1  0.505752  0.275748  0.517405  1
  P  P4  1  0.133773  0.130100  0.697243  1
  P  P5  1  0.273697  0.407384  0.786054  1
  P  P6  1  0.238556  0.386882  0.259471  1
  P  P7  1  0.633773  0.369900  0.197243  1
  P  P8  1  0.617117  0.889825  0.775626  1
  P  P9  1  0.117117  0.610175  0.275626  1
  P  P10  1  0.226303  0.907383  0.713946  1
  P  P11  1  0.761444  0.613118  0.740529  1
  P  P12  1  0.382883  0.110175  0.224374  1
  P  P13  1  0.866227  0.869900  0.302757  1
  P  P14  1  0.366227  0.630100  0.802757  1
  P  P15  1  0.773697  0.092617  0.286054  1
  P  P16  1  0.261444  0.886882  0.240529  1
  P  P17  1  0.882883  0.389825  0.724374  1
  P  P18  1  0.738556  0.113118  0.759471  1
  P  P19  1  0.726303  0.592617  0.213946  1
  O  O20  1  0.271977  0.712634  0.889141  1
  O  O21  1  0.699108  0.480821  0.140162  1
  O  O22  1  0.728023  0.287366  0.110859  1
  O  O23  1  0.300892  0.519179  0.859838  1
  O  O24  1  0.771977  0.787366  0.389141  1
  O  O25  1  0.792057  0.495115  0.781576  1
  O  O26  1  0.905547  0.574680  0.308173  1
  O  O27  1  0.580832  0.635057  0.841082  1
  O  O28  1  0.438598  0.391327  0.682820  1
  O  O29  1  0.352736  0.628680  0.642174  1
  O  O30  1  0.739562  0.166094  0.406129  1
  O  O31  1  0.561402  0.608673  0.317180  1
  O  O32  1  0.147264  0.128680  0.857826  1
  O  O33  1  0.872940  0.317357  0.850384  1
  O  O34  1  0.578744  0.174095  0.701326  1
  O  O35  1  0.094453  0.425320  0.691827  1
  O  O36  1  0.300597  0.147546  0.090693  1
  O  O37  1  0.800892  0.980821  0.359838  1
  O  O38  1  0.760438  0.666094  0.093871  1
  O  O39  1  0.080832  0.864943  0.341082  1
  O  O40  1  0.707943  0.995115  0.718424  1
  O  O41  1  0.699403  0.852454  0.909307  1
  O  O42  1  0.061402  0.891327  0.817180  1
  O  O43  1  0.239562  0.333906  0.906129  1
  O  O44  1  0.228023  0.212634  0.610859  1
  O  O45  1  0.278136  0.376445  0.415482  1
  O  O46  1  0.292057  0.004885  0.281576  1
  O  O47  1  0.647264  0.371320  0.357826  1
  O  O48  1  0.127060  0.682643  0.149616  1
  O  O49  1  0.919168  0.135057  0.658918  1
  O  O50  1  0.260438  0.833906  0.593871  1
  O  O51  1  0.207943  0.504885  0.218424  1
  O  O52  1  0.778136  0.123555  0.915482  1
  O  O53  1  0.800597  0.352454  0.590693  1
  O  O54  1  0.594453  0.074680  0.191827  1
  O  O55  1  0.627060  0.817357  0.649616  1
  O  O56  1  0.421256  0.825905  0.298674  1
  O  O57  1  0.405547  0.925320  0.808173  1
  O  O58  1  0.199108  0.019179  0.640162  1
  O  O59  1  0.721864  0.623555  0.584518  1
  O  O60  1  0.078744  0.325905  0.201326  1
  O  O61  1  0.938598  0.108673  0.182820  1
  O  O62  1  0.921256  0.674095  0.798674  1
  O  O63  1  0.852736  0.871320  0.142174  1
  O  O64  1  0.221864  0.876445  0.084518  1
  O  O65  1  0.372940  0.182643  0.350384  1
  O  O66  1  0.419168  0.364943  0.158918  1
  O  O67  1  0.199403  0.647546  0.409307  1
