# generated using pymatgen
data_Li2V3(P2O7)2
_symmetry_space_group_name_H-M   'P 1'
_cell_length_a   7.45947870
_cell_length_b   7.96733899
_cell_length_c   9.77017982
_cell_angle_alpha   90.00000000
_cell_angle_beta   110.26595673
_cell_angle_gamma   90.00000000
_symmetry_Int_Tables_number   1
_chemical_formula_structural   Li2V3(P2O7)2
_chemical_formula_sum   'Li4 V6 P8 O28'
_cell_volume   544.71722512
_cell_formula_units_Z   2
loop_
 _symmetry_equiv_pos_site_id
 _symmetry_equiv_pos_as_xyz
  1  'x, y, z'
loop_
 _atom_site_type_symbol
 _atom_site_label
 _atom_site_symmetry_multiplicity
 _atom_site_fract_x
 _atom_site_fract_y
 _atom_site_fract_z
 _atom_site_occupancy
  Li  Li0  1  0.293838  0.578755  0.854379  1
  Li  Li1  1  0.293838  0.921245  0.354379  1
  Li  Li2  1  0.706162  0.078754  0.645620  1
  Li  Li3  1  0.706161  0.421245  0.145621  1
  O  O4  1  0.379618  0.673499  0.395909  1
  O  O5  1  0.038022  0.081291  0.892959  1
  O  O6  1  0.157915  0.374745  0.878951  1
  O  O7  1  0.009809  0.795842  0.355584  1
  O  O8  1  0.038023  0.418708  0.392959  1
  O  O9  1  0.319158  0.129579  0.807698  1
  O  O10  1  0.379618  0.826501  0.895909  1
  O  O11  1  0.157916  0.125255  0.378951  1
  O  O12  1  0.278739  0.888153  0.624718  1
  O  O13  1  0.393784  0.491816  0.703817  1
  O  O14  1  0.319158  0.370422  0.307698  1
  O  O15  1  0.009808  0.704158  0.855584  1
  O  O16  1  0.278739  0.611846  0.124719  1
  O  O17  1  0.606216  0.991816  0.796183  1
  O  O18  1  0.393785  0.008184  0.203817  1
  O  O19  1  0.721261  0.388154  0.875282  1
  O  O20  1  0.620382  0.326501  0.604090  1
  O  O21  1  0.680842  0.629579  0.692302  1
  O  O22  1  0.606216  0.508184  0.296183  1
  O  O23  1  0.990190  0.295841  0.144415  1
  O  O24  1  0.842084  0.874744  0.621049  1
  O  O25  1  0.620382  0.173500  0.104090  1
  O  O26  1  0.680843  0.870422  0.192302  1
  O  O27  1  0.961978  0.581291  0.607041  1
  O  O28  1  0.990191  0.204159  0.644416  1
  O  O29  1  0.842085  0.625255  0.121050  1
  O  O30  1  0.961977  0.918709  0.107040  1
  O  O31  1  0.721260  0.111846  0.375281  1
  P  P32  1  0.119498  0.203463  0.807077  1
  P  P33  1  0.119498  0.296536  0.307077  1
  P  P34  1  0.401276  0.947184  0.780976  1
  P  P35  1  0.598724  0.447185  0.719024  1
  P  P36  1  0.401276  0.552815  0.280976  1
  P  P37  1  0.598724  0.052815  0.219024  1
  P  P38  1  0.880502  0.703463  0.692922  1
  P  P39  1  0.880503  0.796536  0.192923  1
  V  V40  1  1.000000  0.000000  0.500000  1
  V  V41  1  0.192143  0.629936  0.520441  1
  V  V42  1  0.000000  0.500000  0.000000  1
  V  V43  1  0.192143  0.870065  0.020441  1
  V  V44  1  0.807857  0.129936  0.979560  1
  V  V45  1  0.807858  0.370064  0.479560  1
