# generated using pymatgen
data_LiV(PO4)2
_symmetry_space_group_name_H-M   'P 1'
_cell_length_a   5.77359908
_cell_length_b   4.89331752
_cell_length_c   9.78810403
_cell_angle_alpha   90.00000000
_cell_angle_beta   89.98880197
_cell_angle_gamma   90.00000000
_symmetry_Int_Tables_number   1
_chemical_formula_structural   LiV(PO4)2
_chemical_formula_sum   'Li2 V2 P4 O16'
_cell_volume   276.53403401
_cell_formula_units_Z   2
loop_
 _symmetry_equiv_pos_site_id
 _symmetry_equiv_pos_as_xyz
  1  'x, y, z'
loop_
 _atom_site_type_symbol
 _atom_site_label
 _atom_site_symmetry_multiplicity
 _atom_site_fract_x
 _atom_site_fract_y
 _atom_site_fract_z
 _atom_site_occupancy
  Li  Li0  1  0.745112  0.069406  0.716419  1
  Li  Li1  1  0.745112  0.430594  0.216419  1
  O  O2  1  0.446539  0.295160  0.664764  1
  O  O3  1  0.043906  0.204917  0.164847  1
  O  O4  1  0.245160  0.338869  0.937638  1
  O  O5  1  0.245160  0.161131  0.437637  1
  O  O6  1  0.245278  0.827962  0.633146  1
  O  O7  1  0.245278  0.672039  0.133145  1
  O  O8  1  0.043906  0.295083  0.664846  1
  O  O9  1  0.446539  0.204840  0.164764  1
  O  O10  1  0.523274  0.697929  0.831892  1
  O  O11  1  0.523274  0.802071  0.331893  1
  O  O12  1  0.967031  0.802094  0.331873  1
  O  O13  1  0.745116  0.242155  0.384961  1
  O  O14  1  0.745136  0.841037  0.554186  1
  O  O15  1  0.745136  0.658963  0.054186  1
  O  O16  1  0.967032  0.697905  0.831873  1
  O  O17  1  0.745116  0.257845  0.884961  1
  P  P18  1  0.245239  0.134468  0.593532  1
  P  P19  1  0.245238  0.365532  0.093533  1
  P  P20  1  0.745134  0.558584  0.909623  1
  P  P21  1  0.745134  0.941417  0.409622  1
  V  V22  1  0.245180  0.555704  0.768319  1
  V  V23  1  0.245180  0.944297  0.268319  1
