# generated using pymatgen
data_Li2MnP2O7
_symmetry_space_group_name_H-M   'P 1'
_cell_length_a   8.03182343
_cell_length_b   13.93808245
_cell_length_c   5.15045050
_cell_angle_alpha   90.00000000
_cell_angle_beta   92.48500888
_cell_angle_gamma   90.00000000
_symmetry_Int_Tables_number   1
_chemical_formula_structural   Li2MnP2O7
_chemical_formula_sum   'Li8 Mn4 P8 O28'
_cell_volume   576.04153115
_cell_formula_units_Z   4
loop_
 _symmetry_equiv_pos_site_id
 _symmetry_equiv_pos_as_xyz
  1  'x, y, z'
loop_
 _atom_site_type_symbol
 _atom_site_label
 _atom_site_symmetry_multiplicity
 _atom_site_fract_x
 _atom_site_fract_y
 _atom_site_fract_z
 _atom_site_occupancy
  Li  Li0  1  0.139513  0.908894  0.182264  1
  Li  Li1  1  0.169203  0.310102  0.743930  1
  Li  Li2  1  0.330797  0.810102  0.756070  1
  Li  Li3  1  0.360487  0.408894  0.317736  1
  Li  Li4  1  0.639513  0.591106  0.682265  1
  Li  Li5  1  0.669203  0.189898  0.243929  1
  Li  Li6  1  0.830797  0.689898  0.256071  1
  Li  Li7  1  0.860487  0.091106  0.817736  1
  O  O8  1  0.177319  0.030750  0.408715  1
  O  O9  1  0.918223  0.438468  0.227532  1
  O  O10  1  0.880198  0.899176  0.142455  1
  O  O11  1  0.833933  0.272822  0.065884  1
  O  O12  1  0.043511  0.703151  0.471829  1
  O  O13  1  0.081777  0.561532  0.772467  1
  O  O14  1  0.119802  0.100824  0.857546  1
  O  O15  1  0.166067  0.727178  0.934116  1
  O  O16  1  0.140600  0.312988  0.140062  1
  O  O17  1  0.956489  0.296849  0.528172  1
  O  O18  1  0.218672  0.928080  0.823467  1
  O  O19  1  0.281328  0.428081  0.676533  1
  O  O20  1  0.322680  0.530750  0.091286  1
  O  O21  1  0.333933  0.227178  0.565883  1
  O  O22  1  0.359399  0.812988  0.359938  1
  O  O23  1  0.380197  0.600824  0.642456  1
  O  O24  1  0.859400  0.687012  0.859937  1
  O  O25  1  0.456488  0.203151  0.028172  1
  O  O26  1  0.543512  0.796849  0.971827  1
  O  O27  1  0.581777  0.938468  0.272468  1
  O  O28  1  0.619803  0.399177  0.357545  1
  O  O29  1  0.640601  0.187011  0.640062  1
  O  O30  1  0.666067  0.772822  0.434116  1
  O  O31  1  0.677320  0.469250  0.908715  1
  O  O32  1  0.718672  0.571920  0.323468  1
  O  O33  1  0.781328  0.071920  0.176532  1
  O  O34  1  0.822681  0.969250  0.591284  1
  O  O35  1  0.418223  0.061533  0.727533  1
  P  P36  1  0.963880  0.325716  0.240391  1
  P  P37  1  0.779852  0.973063  0.296865  1
  P  P38  1  0.720148  0.473063  0.203135  1
  P  P39  1  0.536121  0.825716  0.259609  1
  P  P40  1  0.036120  0.674284  0.759610  1
  P  P41  1  0.220148  0.026938  0.703136  1
  P  P42  1  0.463879  0.174284  0.740390  1
  P  P43  1  0.279852  0.526937  0.796866  1
  Mn  Mn44  1  0.228170  0.163609  0.212080  1
  Mn  Mn45  1  0.271831  0.663609  0.287920  1
  Mn  Mn46  1  0.728169  0.336391  0.712081  1
  Mn  Mn47  1  0.771830  0.836391  0.787918  1
