# generated using pymatgen
data_Li3Cu2(WO4)4
_symmetry_space_group_name_H-M   'P 1'
_cell_length_a   10.27215710
_cell_length_b   8.75323846
_cell_length_c   8.16226650
_cell_angle_alpha   47.80001072
_cell_angle_beta   46.03924070
_cell_angle_gamma   34.99292041
_symmetry_Int_Tables_number   1
_chemical_formula_structural   Li3Cu2(WO4)4
_chemical_formula_sum   'Li3 Cu2 W4 O16'
_cell_volume   293.36347047
_cell_formula_units_Z   1
loop_
 _symmetry_equiv_pos_site_id
 _symmetry_equiv_pos_as_xyz
  1  'x, y, z'
loop_
 _atom_site_type_symbol
 _atom_site_label
 _atom_site_symmetry_multiplicity
 _atom_site_fract_x
 _atom_site_fract_y
 _atom_site_fract_z
 _atom_site_occupancy
  Li  Li0  1  0.065913  0.587950  0.215515  1
  Li  Li1  1  0.936368  0.411079  0.779389  1
  Li  Li2  1  0.563579  0.580539  0.230319  1
  O  O3  1  0.019336  0.739515  0.920205  1
  O  O4  1  0.858172  0.780044  0.640160  1
  O  O5  1  0.147481  0.216763  0.355381  1
  O  O6  1  0.464944  0.270271  0.094934  1
  O  O7  1  0.282015  0.202776  0.573737  1
  O  O8  1  0.168059  0.744286  0.173937  1
  O  O9  1  0.325475  0.253780  0.829271  1
  O  O10  1  0.644689  0.216719  0.362453  1
  O  O11  1  0.223604  0.791114  0.427099  1
  O  O12  1  0.714773  0.800409  0.428868  1
  O  O13  1  0.961054  0.270963  0.087176  1
  O  O14  1  0.798536  0.195294  0.560256  1
  O  O15  1  0.349481  0.794048  0.645010  1
  O  O16  1  0.663762  0.738355  0.182112  1
  O  O17  1  0.836155  0.258172  0.819468  1
  O  O18  1  0.542452  0.723123  0.911028  1
  Cu  Cu19  1  0.998099  0.497625  0.005730  1
  Cu  Cu20  1  0.499204  0.506029  0.987936  1
  W  W21  1  0.031110  0.010237  0.660044  1
  W  W22  1  0.523203  0.025552  0.655113  1
  W  W23  1  0.473321  0.982132  0.341781  1
  W  W24  1  0.975917  0.976425  0.349278  1
