# generated using pymatgen
data_Li2CuPO4
_symmetry_space_group_name_H-M   'P 1'
_cell_length_a   6.23622128
_cell_length_b   5.30401777
_cell_length_c   5.07803052
_cell_angle_alpha   90.00000000
_cell_angle_beta   90.00000000
_cell_angle_gamma   90.00000000
_symmetry_Int_Tables_number   1
_chemical_formula_structural   Li2CuPO4
_chemical_formula_sum   'Li4 Cu2 P2 O8'
_cell_volume   167.96616017
_cell_formula_units_Z   2
loop_
 _symmetry_equiv_pos_site_id
 _symmetry_equiv_pos_as_xyz
  1  'x, y, z'
loop_
 _atom_site_type_symbol
 _atom_site_label
 _atom_site_symmetry_multiplicity
 _atom_site_fract_x
 _atom_site_fract_y
 _atom_site_fract_z
 _atom_site_occupancy
  Li  Li0  1  0.749636  0.673594  0.498184  1
  Li  Li1  1  0.250364  0.673594  0.498184  1
  Li  Li2  1  0.249636  0.326406  0.998184  1
  Li  Li3  1  0.750364  0.326406  0.998184  1
  Cu  Cu4  1  0.500000  0.187220  0.499573  1
  Cu  Cu5  1  0.000000  0.812780  0.999573  1
  P  P6  1  0.500000  0.824046  0.002518  1
  P  P7  1  0.000000  0.175954  0.502518  1
  O  O8  1  0.000000  0.894145  0.415504  1
  O  O9  1  0.500000  0.803703  0.307335  1
  O  O10  1  0.000000  0.196297  0.807335  1
  O  O11  1  0.297875  0.685695  0.889352  1
  O  O12  1  0.202125  0.314305  0.389352  1
  O  O13  1  0.797875  0.314305  0.389352  1
  O  O14  1  0.702125  0.685695  0.889352  1
  O  O15  1  0.500000  0.105855  0.915504  1
