# generated using pymatgen
data_V2P5O16
_symmetry_space_group_name_H-M   'P 1'
_cell_length_a   19.13625310
_cell_length_b   6.82368400
_cell_length_c   5.15565760
_cell_angle_alpha   90.00000000
_cell_angle_beta   89.53907731
_cell_angle_gamma   90.00000000
_symmetry_Int_Tables_number   1
_chemical_formula_structural   V2P5O16
_chemical_formula_sum   'V4 P10 O32'
_cell_volume   673.20266582
_cell_formula_units_Z   2
loop_
 _symmetry_equiv_pos_site_id
 _symmetry_equiv_pos_as_xyz
  1  'x, y, z'
loop_
 _atom_site_type_symbol
 _atom_site_label
 _atom_site_symmetry_multiplicity
 _atom_site_fract_x
 _atom_site_fract_y
 _atom_site_fract_z
 _atom_site_occupancy
  V  V0  1  0.093799  0.817917  0.248669  1
  V  V1  1  0.406201  0.817917  0.751332  1
  V  V2  1  0.593799  0.182083  0.248669  1
  V  V3  1  0.906201  0.182083  0.751332  1
  P  P4  1  0.076556  0.125894  0.752367  1
  P  P5  1  0.130972  0.535417  0.745989  1
  P  P6  1  0.250000  0.727086  0.000000  1
  P  P7  1  0.369027  0.535417  0.254013  1
  P  P8  1  0.423443  0.125894  0.247632  1
  P  P9  1  0.576556  0.874106  0.752369  1
  P  P10  1  0.630973  0.464582  0.745988  1
  P  P11  1  0.923444  0.874106  0.247632  1
  P  P12  1  0.869027  0.464582  0.254012  1
  P  P13  1  0.750000  0.272915  0.000000  1
  O  O14  1  0.006545  0.214780  0.676561  1
  O  O15  1  0.075200  0.039758  0.025364  1
  O  O16  1  0.084842  0.632125  0.946634  1
  O  O17  1  0.117240  0.584435  0.465940  1
  O  O18  1  0.108933  0.988527  0.552369  1
  O  O19  1  0.132093  0.304716  0.774968  1
  O  O20  1  0.196581  0.842101  0.150779  1
  O  O21  1  0.212215  0.578546  0.803814  1
  O  O22  1  0.287785  0.578546  0.196185  1
  O  O23  1  0.303419  0.842101  0.849221  1
  O  O24  1  0.367907  0.304716  0.225031  1
  O  O25  1  0.391067  0.988527  0.447631  1
  O  O26  1  0.382760  0.584435  0.534060  1
  O  O27  1  0.415158  0.632125  0.053366  1
  O  O28  1  0.424801  0.039758  0.974635  1
  O  O29  1  0.493455  0.214780  0.323440  1
  O  O30  1  0.506545  0.785219  0.676561  1
  O  O31  1  0.575200  0.960241  0.025364  1
  O  O32  1  0.584842  0.367876  0.946635  1
  O  O33  1  0.617240  0.415566  0.465939  1
  O  O34  1  0.608933  0.011472  0.552370  1
  O  O35  1  0.632093  0.695284  0.774968  1
  O  O36  1  0.696581  0.157898  0.150778  1
  O  O37  1  0.993455  0.785219  0.323440  1
  O  O38  1  0.787785  0.421453  0.196185  1
  O  O39  1  0.803419  0.157898  0.849221  1
  O  O40  1  0.867907  0.695284  0.225031  1
  O  O41  1  0.891067  0.011472  0.447630  1
  O  O42  1  0.882760  0.415566  0.534059  1
  O  O43  1  0.915158  0.367876  0.053365  1
  O  O44  1  0.924801  0.960241  0.974637  1
  O  O45  1  0.712215  0.421453  0.803816  1
