# generated using pymatgen
data_Li3Bi5(PO4)6
_symmetry_space_group_name_H-M   'P 1'
_cell_length_a   8.84558163
_cell_length_b   8.85348163
_cell_length_c   8.74772758
_cell_angle_alpha   109.74956568
_cell_angle_beta   109.27278822
_cell_angle_gamma   108.70041348
_symmetry_Int_Tables_number   1
_chemical_formula_structural   Li3Bi5(PO4)6
_chemical_formula_sum   'Li3 Bi5 P6 O24'
_cell_volume   531.78358280
_cell_formula_units_Z   1
loop_
 _symmetry_equiv_pos_site_id
 _symmetry_equiv_pos_as_xyz
  1  'x, y, z'
loop_
 _atom_site_type_symbol
 _atom_site_label
 _atom_site_symmetry_multiplicity
 _atom_site_fract_x
 _atom_site_fract_y
 _atom_site_fract_z
 _atom_site_occupancy
  Li  Li0  1  0.973692  0.774647  0.505119  1
  Li  Li1  1  0.280156  0.491739  0.996652  1
  Li  Li2  1  0.731158  0.718443  0.700648  1
  O  O3  1  0.066679  0.265377  0.923365  1
  O  O4  1  0.689158  0.848304  0.921172  1
  O  O5  1  0.186945  0.424788  0.336543  1
  O  O6  1  0.161412  0.580078  0.841180  1
  O  O7  1  0.158815  0.816461  0.741765  1
  O  O8  1  0.918294  0.082228  0.257710  1
  O  O9  1  0.665576  0.343291  0.086787  1
  O  O10  1  0.646266  0.224479  0.302899  1
  O  O11  1  0.847864  0.172366  0.588003  1
  O  O12  1  0.417980  0.329514  0.164916  1
  O  O13  1  0.822824  0.751001  0.159776  1
  O  O14  1  0.728014  0.146345  0.800252  1
  O  O15  1  0.749587  0.562237  0.422635  1
  O  O16  1  0.407731  0.756044  0.570962  1
  O  O17  1  0.351738  0.086128  0.655048  1
  O  O18  1  0.588516  0.850660  0.158964  1
  O  O19  1  0.342210  0.184868  0.419337  1
  O  O20  1  0.311803  0.658663  0.235022  1
  O  O21  1  0.575091  0.418112  0.755403  1
  O  O22  1  0.935819  0.695354  0.854732  1
  O  O23  1  0.241995  0.316406  0.657155  1
  O  O24  1  0.269690  0.914803  0.079002  1
  O  O25  1  0.848532  0.927767  0.676348  1
  O  O26  1  0.074372  0.651990  0.339594  1
  P  P27  1  0.876150  0.120500  0.748410  1
  P  P28  1  0.622687  0.373797  0.252940  1
  P  P29  1  0.752563  0.881250  0.121258  1
  P  P30  1  0.378885  0.253187  0.625064  1
  P  P31  1  0.244041  0.626577  0.368650  1
  P  P32  1  0.127775  0.746871  0.874176  1
  Bi  Bi33  1  0.490810  0.989348  0.833771  1
  Bi  Bi34  1  0.012441  0.352927  0.513656  1
  Bi  Bi35  1  0.501123  0.987474  0.342983  1
  Bi  Bi36  1  0.161308  0.163197  0.144019  1
  Bi  Bi37  1  0.840300  0.512777  0.001935  1
