# generated using pymatgen
data_Li3Cr2P5O18
_symmetry_space_group_name_H-M   'P 1'
_cell_length_a   9.44628840
_cell_length_b   10.51350306
_cell_length_c   6.46733939
_cell_angle_alpha   92.64365359
_cell_angle_beta   91.48763535
_cell_angle_gamma   95.97491814
_symmetry_Int_Tables_number   1
_chemical_formula_structural   Li3Cr2P5O18
_chemical_formula_sum   'Li6 Cr4 P10 O36'
_cell_volume   637.81957427
_cell_formula_units_Z   2
loop_
 _symmetry_equiv_pos_site_id
 _symmetry_equiv_pos_as_xyz
  1  'x, y, z'
loop_
 _atom_site_type_symbol
 _atom_site_label
 _atom_site_symmetry_multiplicity
 _atom_site_fract_x
 _atom_site_fract_y
 _atom_site_fract_z
 _atom_site_occupancy
  Li  Li0  1  0.058425  0.868394  0.005940  1
  Li  Li1  1  0.941606  0.131667  0.993745  1
  Li  Li2  1  0.780537  0.335855  0.867857  1
  Li  Li3  1  0.725730  0.399051  0.454270  1
  Li  Li4  1  0.274420  0.601078  0.545466  1
  Li  Li5  1  0.219470  0.664092  0.132177  1
  O  O6  1  0.237838  0.037773  0.368684  1
  O  O7  1  0.943413  0.687070  0.575482  1
  O  O8  1  0.921506  0.102244  0.336037  1
  O  O9  1  0.978000  0.317004  0.037784  1
  O  O10  1  0.022095  0.682944  0.962191  1
  O  O11  1  0.078433  0.897713  0.663939  1
  O  O12  1  0.056593  0.312862  0.424480  1
  O  O13  1  0.049934  0.150077  0.689662  1
  O  O14  1  0.102399  0.528358  0.712808  1
  O  O15  1  0.173065  0.741617  0.396333  1
  O  O16  1  0.168668  0.482012  0.218857  1
  O  O17  1  0.180351  0.037619  0.986623  1
  O  O18  1  0.251378  0.244811  0.189198  1
  O  O19  1  0.321769  0.803175  0.996029  1
  O  O20  1  0.568781  0.905617  0.900998  1
  O  O21  1  0.364632  0.919306  0.667297  1
  O  O22  1  0.360058  0.419286  0.930669  1
  O  O23  1  0.345228  0.420476  0.538543  1
  O  O24  1  0.427363  0.601084  0.271885  1
  O  O25  1  0.897718  0.471668  0.287424  1
  O  O26  1  0.459994  0.696737  0.719937  1
  O  O27  1  0.431233  0.094329  0.099104  1
  O  O28  1  0.949953  0.849878  0.310337  1
  O  O29  1  0.540032  0.303269  0.280074  1
  O  O30  1  0.632824  0.789906  0.289787  1
  O  O31  1  0.572610  0.398963  0.728210  1
  O  O32  1  0.654763  0.579549  0.461523  1
  O  O33  1  0.639940  0.580789  0.069409  1
  O  O34  1  0.635325  0.080663  0.332796  1
  O  O35  1  0.762103  0.962258  0.631296  1
  O  O36  1  0.678274  0.196750  0.004040  1
  O  O37  1  0.748690  0.755205  0.810768  1
  O  O38  1  0.819673  0.962389  0.013344  1
  O  O39  1  0.831323  0.517958  0.781210  1
  O  O40  1  0.826880  0.258390  0.603557  1
  O  O41  1  0.367140  0.210127  0.710299  1
  P  P42  1  0.591414  0.645306  0.272624  1
  P  P43  1  0.580175  0.173888  0.181695  1
  P  P44  1  0.727650  0.897305  0.830026  1
  P  P45  1  0.975728  0.600707  0.766327  1
  P  P46  1  0.045178  0.799462  0.478642  1
  P  P47  1  0.024263  0.399256  0.233637  1
  P  P48  1  0.272348  0.102705  0.169964  1
  P  P49  1  0.419833  0.826100  0.818362  1
  P  P50  1  0.408560  0.354725  0.727459  1
  P  P51  1  0.954779  0.200527  0.521290  1
  Cr  Cr52  1  0.777119  0.950746  0.324256  1
  Cr  Cr53  1  0.640481  0.593638  0.767553  1
  Cr  Cr54  1  0.359507  0.406387  0.232489  1
  Cr  Cr55  1  0.222803  0.049231  0.675609  1
