# generated using pymatgen
data_LiCr2(PO4)3
_symmetry_space_group_name_H-M   'P 1'
_cell_length_a   10.13320930
_cell_length_b   10.13320930
_cell_length_c   10.13320930
_cell_angle_alpha   109.83518086
_cell_angle_beta   109.28954762
_cell_angle_gamma   109.28954763
_symmetry_Int_Tables_number   1
_chemical_formula_structural   LiCr2(PO4)3
_chemical_formula_sum   'Li4 Cr8 P12 O48'
_cell_volume   800.95108702
_cell_formula_units_Z   4
loop_
 _symmetry_equiv_pos_site_id
 _symmetry_equiv_pos_as_xyz
  1  'x, y, z'
loop_
 _atom_site_type_symbol
 _atom_site_label
 _atom_site_symmetry_multiplicity
 _atom_site_fract_x
 _atom_site_fract_y
 _atom_site_fract_z
 _atom_site_occupancy
  Li  Li0  1  0.250000  0.875000  0.625000  1
  Li  Li1  1  0.750000  0.125000  0.375000  1
  Li  Li2  1  0.750000  0.625001  0.875000  1
  Li  Li3  1  0.250000  0.375000  0.125000  1
  O  O4  1  0.201195  0.585090  0.198047  1
  O  O5  1  0.906158  0.110453  0.607066  1
  O  O6  1  0.799498  0.501876  0.391936  1
  O  O7  1  0.593841  0.200908  0.204295  1
  O  O8  1  0.887044  0.383894  0.585090  1
  O  O9  1  0.996613  0.700908  0.107067  1
  O  O10  1  0.890060  0.391936  0.092439  1
  O  O11  1  0.887044  0.003149  0.301954  1
  O  O12  1  0.112956  0.996851  0.698047  1
  O  O13  1  0.109940  0.608064  0.907562  1
  O  O14  1  0.003387  0.299092  0.892934  1
  O  O15  1  0.093842  0.704295  0.700908  1
  O  O16  1  0.093842  0.889547  0.392934  1
  O  O17  1  0.112956  0.616105  0.414909  1
  O  O18  1  0.200502  0.498125  0.608064  1
  O  O19  1  0.406159  0.799093  0.795705  1
  O  O20  1  0.298805  0.301953  0.914910  1
  O  O21  1  0.390060  0.592438  0.891936  1
  O  O22  1  0.299498  0.907561  0.297622  1
  O  O23  1  0.003386  0.204295  0.110453  1
  O  O24  1  0.200502  0.202379  0.592439  1
  O  O25  1  0.906159  0.295706  0.299092  1
  O  O26  1  0.387044  0.801954  0.503149  1
  O  O27  1  0.299498  0.891937  0.001876  1
  O  O28  1  0.298804  0.496851  0.383895  1
  O  O29  1  0.109940  0.001876  0.202378  1
  O  O30  1  0.387045  0.085091  0.883896  1
  O  O31  1  0.503387  0.610453  0.704294  1
  O  O32  1  0.503387  0.392934  0.799092  1
  O  O33  1  0.390060  0.297622  0.498124  1
  O  O34  1  0.201195  0.116105  0.003149  1
  O  O35  1  0.593841  0.892933  0.389547  1
  O  O36  1  0.406158  0.107066  0.610453  1
  O  O37  1  0.798804  0.883895  0.996850  1
  O  O38  1  0.609939  0.702378  0.501875  1
  O  O39  1  0.496613  0.607066  0.200908  1
  O  O40  1  0.496613  0.389547  0.295706  1
  O  O41  1  0.612956  0.914910  0.116104  1
  O  O42  1  0.890060  0.998124  0.797622  1
  O  O43  1  0.701195  0.503149  0.616105  1
  O  O44  1  0.700502  0.108064  0.998124  1
  O  O45  1  0.612956  0.198047  0.496851  1
  O  O46  1  0.701195  0.698046  0.085090  1
  O  O47  1  0.799498  0.797622  0.407562  1
  O  O48  1  0.996613  0.795706  0.889547  1
  O  O49  1  0.700502  0.092438  0.702378  1
  O  O50  1  0.609939  0.407561  0.108064  1
  O  O51  1  0.798805  0.414909  0.801954  1
  P  P52  1  0.374180  0.624179  0.750000  1
  P  P53  1  0.374179  0.249999  0.624179  1
  P  P54  1  0.250000  0.625001  0.375000  1
  P  P55  1  0.625821  0.750000  0.375820  1
  P  P56  1  0.625820  0.375820  0.250000  1
  P  P57  1  0.750000  0.375000  0.625000  1
  P  P58  1  0.750000  0.875000  0.125000  1
  P  P59  1  0.874180  0.124179  0.750000  1
  P  P60  1  0.125820  0.749999  0.875820  1
  P  P61  1  0.125820  0.875820  0.249999  1
  P  P62  1  0.250000  0.125000  0.875000  1
  P  P63  1  0.874180  0.250000  0.124179  1
  Cr  Cr64  1  0.500000  0.000000  0.000000  1
  Cr  Cr65  1  0.500000  0.500000  0.000001  1
  Cr  Cr66  1  0.500000  0.000000  0.500000  1
  Cr  Cr67  1  0.500000  0.500000  0.500000  1
  Cr  Cr68  1  0.000000  0.000000  0.000000  1
  Cr  Cr69  1  0.000000  0.500000  0.000001  1
  Cr  Cr70  1  1.000000  1.000000  0.500000  1
  Cr  Cr71  1  0.000000  0.500000  0.500000  1
