# generated using pymatgen
data_Co(PO3)4
_symmetry_space_group_name_H-M   'P 1'
_cell_length_a   5.13114217
_cell_length_b   10.50664308
_cell_length_c   10.50664332
_cell_angle_alpha   71.71759571
_cell_angle_beta   96.48372083
_cell_angle_gamma   96.48371987
_symmetry_Int_Tables_number   1
_chemical_formula_structural   Co(PO3)4
_chemical_formula_sum   'Co2 P8 O24'
_cell_volume   532.58650012
_cell_formula_units_Z   2
loop_
 _symmetry_equiv_pos_site_id
 _symmetry_equiv_pos_as_xyz
  1  'x, y, z'
loop_
 _atom_site_type_symbol
 _atom_site_label
 _atom_site_symmetry_multiplicity
 _atom_site_fract_x
 _atom_site_fract_y
 _atom_site_fract_z
 _atom_site_occupancy
  Co  Co0  1  0.000000  -0.000000  0.500000  1
  Co  Co1  1  0.000000  0.500000  0.000000  1
  P  P2  1  0.181814  0.788221  0.361535  1
  P  P3  1  0.534172  0.941988  0.698859  1
  P  P4  1  0.465828  0.058012  0.301141  1
  P  P5  1  0.181814  0.361535  0.788221  1
  P  P6  1  0.534172  0.698859  0.941988  1
  P  P7  1  0.818186  0.638465  0.211779  1
  P  P8  1  0.465828  0.301141  0.058012  1
  P  P9  1  0.818186  0.211779  0.638465  1
  O  O10  1  0.336510  0.434324  0.669833  1
  O  O11  1  0.298203  0.398895  0.084082  1
  O  O12  1  0.663490  0.565676  0.330167  1
  O  O13  1  0.372841  0.914358  0.280918  1
  O  O14  1  0.984965  0.165665  0.553985  1
  O  O15  1  0.701797  0.915918  0.601105  1
  O  O16  1  0.627159  0.719082  0.085642  1
  O  O17  1  0.757656  0.330517  0.072700  1
  O  O18  1  0.242344  0.669483  0.927300  1
  O  O19  1  0.613154  0.848132  0.848132  1
  O  O20  1  0.298203  0.084082  0.398895  1
  O  O21  1  0.663490  0.330167  0.565676  1
  O  O22  1  1.000000  0.232524  0.767476  1
  O  O23  1  0.627159  0.085642  0.719082  1
  O  O24  1  0.015035  0.446015  0.834335  1
  O  O25  1  0.336510  0.669833  0.434324  1
  O  O26  1  0.000000  0.767476  0.232524  1
  O  O27  1  0.984965  0.553985  0.165665  1
  O  O28  1  0.242344  0.927300  0.669483  1
  O  O29  1  0.757656  0.072700  0.330517  1
  O  O30  1  0.701797  0.601105  0.915918  1
  O  O31  1  0.386846  0.151868  0.151868  1
  O  O32  1  0.372841  0.280918  0.914358  1
  O  O33  1  0.015035  0.834335  0.446015  1
