# generated using pymatgen
data_Li2SnP2O7
_symmetry_space_group_name_H-M   'P 1'
_cell_length_a   13.63692494
_cell_length_b   5.11384640
_cell_length_c   9.09298960
_cell_angle_alpha   90.00000000
_cell_angle_beta   99.18125502
_cell_angle_gamma   90.00000000
_symmetry_Int_Tables_number   1
_chemical_formula_structural   Li2SnP2O7
_chemical_formula_sum   'Li8 Sn4 P8 O28'
_cell_volume   625.99507979
_cell_formula_units_Z   4
loop_
 _symmetry_equiv_pos_site_id
 _symmetry_equiv_pos_as_xyz
  1  'x, y, z'
loop_
 _atom_site_type_symbol
 _atom_site_label
 _atom_site_symmetry_multiplicity
 _atom_site_fract_x
 _atom_site_fract_y
 _atom_site_fract_z
 _atom_site_occupancy
  Li  Li0  1  0.073035  0.293649  0.569958  1
  Li  Li1  1  0.208089  0.766321  0.119147  1
  Li  Li2  1  0.291911  0.266321  0.380853  1
  Li  Li3  1  0.426965  0.793649  0.930042  1
  Li  Li4  1  0.573035  0.206351  0.069958  1
  Li  Li5  1  0.708089  0.733679  0.619147  1
  Li  Li6  1  0.791911  0.233679  0.880853  1
  Li  Li7  1  0.926965  0.706351  0.430042  1
  O  O8  1  0.072676  0.160017  0.777078  1
  O  O9  1  0.112961  0.539409  0.963456  1
  O  O10  1  0.071494  0.679610  0.520931  1
  O  O11  1  0.155247  0.086044  0.435922  1
  O  O12  1  0.109135  0.069544  0.054979  1
  O  O13  1  0.246169  0.215902  0.914514  1
  O  O14  1  0.177983  0.641951  0.313098  1
  O  O15  1  0.253831  0.715902  0.585486  1
  O  O16  1  0.428506  0.179610  0.979069  1
  O  O17  1  0.322017  0.141951  0.186902  1
  O  O18  1  0.387039  0.039409  0.536544  1
  O  O19  1  0.427324  0.660017  0.722922  1
  O  O20  1  0.390865  0.569544  0.445021  1
  O  O21  1  0.344753  0.586044  0.064078  1
  O  O22  1  0.655247  0.413956  0.935922  1
  O  O23  1  0.609135  0.430456  0.554979  1
  O  O24  1  0.572676  0.339983  0.277078  1
  O  O25  1  0.612961  0.960591  0.463456  1
  O  O26  1  0.677983  0.858049  0.813098  1
  O  O27  1  0.571494  0.820390  0.020931  1
  O  O28  1  0.746169  0.284098  0.414514  1
  O  O29  1  0.822017  0.358049  0.686902  1
  O  O30  1  0.753831  0.784098  0.085486  1
  O  O31  1  0.890865  0.930456  0.945021  1
  O  O32  1  0.844753  0.913956  0.564078  1
  O  O33  1  0.928506  0.320390  0.479069  1
  O  O34  1  0.887039  0.460591  0.036544  1
  O  O35  1  0.927324  0.839983  0.222922  1
  P  P36  1  0.130566  0.252208  0.927863  1
  P  P37  1  0.159294  0.784933  0.453229  1
  P  P38  1  0.369434  0.752208  0.572137  1
  P  P39  1  0.340706  0.284933  0.046771  1
  P  P40  1  0.659294  0.715067  0.953229  1
  P  P41  1  0.630566  0.247792  0.427862  1
  P  P42  1  0.840706  0.215067  0.546771  1
  P  P43  1  0.869434  0.747792  0.072137  1
  Sn  Sn44  1  0.018123  0.245885  0.217853  1
  Sn  Sn45  1  0.518123  0.254115  0.717853  1
  Sn  Sn46  1  0.481877  0.745885  0.282147  1
  Sn  Sn47  1  0.981877  0.754115  0.782147  1
