# generated using pymatgen
data_PWO4
_symmetry_space_group_name_H-M   'P 1'
_cell_length_a   5.10752256
_cell_length_b   5.99302532
_cell_length_c   10.20480197
_cell_angle_alpha   90.00000000
_cell_angle_beta   90.00000000
_cell_angle_gamma   90.00000000
_symmetry_Int_Tables_number   1
_chemical_formula_structural   PWO4
_chemical_formula_sum   'P4 W4 O16'
_cell_volume   312.36400861
_cell_formula_units_Z   4
loop_
 _symmetry_equiv_pos_site_id
 _symmetry_equiv_pos_as_xyz
  1  'x, y, z'
loop_
 _atom_site_type_symbol
 _atom_site_label
 _atom_site_symmetry_multiplicity
 _atom_site_fract_x
 _atom_site_fract_y
 _atom_site_fract_z
 _atom_site_occupancy
  O  O0  1  0.661388  0.250001  0.114259  1
  O  O1  1  0.276599  0.452728  0.657765  1
  O  O2  1  0.776600  0.547271  0.842235  1
  O  O3  1  0.723399  0.952728  0.342235  1
  O  O4  1  0.223401  0.047272  0.157765  1
  O  O5  1  0.723399  0.547271  0.342235  1
  O  O6  1  0.223401  0.452728  0.157765  1
  O  O7  1  0.276599  0.047272  0.657765  1
  O  O8  1  0.338613  0.750001  0.885742  1
  O  O9  1  0.838611  0.250001  0.614258  1
  O  O10  1  0.776600  0.952728  0.842235  1
  O  O11  1  0.161390  0.750001  0.385742  1
  O  O12  1  0.812707  0.750001  0.559771  1
  O  O13  1  0.312706  0.250001  0.940229  1
  O  O14  1  0.187292  0.250001  0.440230  1
  O  O15  1  0.687294  0.750001  0.059770  1
  P  P16  1  0.631032  0.750001  0.913671  1
  P  P17  1  0.868967  0.750001  0.413671  1
  P  P18  1  0.368971  0.250001  0.086327  1
  P  P19  1  0.131031  0.250001  0.586328  1
  W  W20  1  0.064345  0.750001  0.728387  1
  W  W21  1  0.435653  0.750001  0.228387  1
  W  W22  1  0.935653  0.250001  0.271613  1
  W  W23  1  0.564345  0.250001  0.771613  1
