# generated using pymatgen
data_V(PO3)5
_symmetry_space_group_name_H-M   'P 1'
_cell_length_a   5.21092653
_cell_length_b   13.80002114
_cell_length_c   8.95770731
_cell_angle_alpha   90.00000000
_cell_angle_beta   101.76343423
_cell_angle_gamma   90.00000000
_symmetry_Int_Tables_number   1
_chemical_formula_structural   V(PO3)5
_chemical_formula_sum   'V2 P10 O30'
_cell_volume   630.62798667
_cell_formula_units_Z   2
loop_
 _symmetry_equiv_pos_site_id
 _symmetry_equiv_pos_as_xyz
  1  'x, y, z'
loop_
 _atom_site_type_symbol
 _atom_site_label
 _atom_site_symmetry_multiplicity
 _atom_site_fract_x
 _atom_site_fract_y
 _atom_site_fract_z
 _atom_site_occupancy
  O  O0  1  0.047265  0.250000  0.471436  1
  O  O1  1  0.120183  0.141970  0.700503  1
  O  O2  1  0.120183  0.358030  0.700503  1
  O  O3  1  0.228257  0.019314  0.919291  1
  O  O4  1  0.228257  0.480687  0.919291  1
  O  O5  1  0.223349  0.750000  0.870911  1
  O  O6  1  0.174228  0.077623  0.442158  1
  O  O7  1  0.174228  0.422377  0.442158  1
  O  O8  1  0.282780  0.619873  0.510029  1
  O  O9  1  0.282780  0.880127  0.510029  1
  O  O10  1  0.497421  0.027022  0.703767  1
  O  O11  1  0.497421  0.472979  0.703767  1
  O  O12  1  0.544100  0.162007  0.885623  1
  O  O13  1  0.544100  0.337993  0.885623  1
  O  O14  1  0.301768  0.250000  0.075765  1
  O  O15  1  0.698232  0.750000  0.924235  1
  O  O16  1  0.455900  0.662007  0.114377  1
  O  O17  1  0.455900  0.837993  0.114377  1
  O  O18  1  0.502579  0.527021  0.296233  1
  O  O19  1  0.502579  0.972978  0.296233  1
  O  O20  1  0.717222  0.119873  0.489971  1
  O  O21  1  0.952736  0.750000  0.528564  1
  O  O22  1  0.825773  0.577623  0.557842  1
  O  O23  1  0.825773  0.922377  0.557842  1
  O  O24  1  0.776650  0.250000  0.129088  1
  O  O25  1  0.771744  0.519313  0.080709  1
  O  O26  1  0.771744  0.980686  0.080709  1
  O  O27  1  0.879817  0.641970  0.299497  1
  O  O28  1  0.879817  0.858030  0.299497  1
  O  O29  1  0.717222  0.380127  0.489971  1
  P  P30  1  0.007493  0.141188  0.521891  1
  P  P31  1  0.007493  0.358812  0.521891  1
  P  P32  1  0.344407  0.077140  0.814232  1
  P  P33  1  0.344407  0.422860  0.814232  1
  P  P34  1  0.463011  0.750000  0.998534  1
  P  P35  1  0.536988  0.250000  0.001466  1
  P  P36  1  0.992506  0.858812  0.478109  1
  P  P37  1  0.655592  0.922860  0.185768  1
  P  P38  1  0.992506  0.641188  0.478109  1
  P  P39  1  0.655592  0.577140  0.185768  1
  V  V40  1  0.500001  0.000000  0.500000  1
  V  V41  1  0.500001  0.500000  0.500000  1
