# generated using pymatgen
data_LiSn(PO3)4
_symmetry_space_group_name_H-M   'P 1'
_cell_length_a   9.55783308
_cell_length_b   9.55787148
_cell_length_c   9.51758269
_cell_angle_alpha   90.00063168
_cell_angle_beta   90.00078029
_cell_angle_gamma   89.99953478
_symmetry_Int_Tables_number   1
_chemical_formula_structural   LiSn(PO3)4
_chemical_formula_sum   'Li4 Sn4 P16 O48'
_cell_volume   869.45535499
_cell_formula_units_Z   4
loop_
 _symmetry_equiv_pos_site_id
 _symmetry_equiv_pos_as_xyz
  1  'x, y, z'
loop_
 _atom_site_type_symbol
 _atom_site_label
 _atom_site_symmetry_multiplicity
 _atom_site_fract_x
 _atom_site_fract_y
 _atom_site_fract_z
 _atom_site_occupancy
  Li  Li0  1  0.499976  0.499969  0.250006  1
  Li  Li1  1  0.999979  0.999970  0.250003  1
  Li  Li2  1  0.000034  0.500045  0.750004  1
  Li  Li3  1  0.500032  0.000043  0.750004  1
  Sn  Sn4  1  0.249967  0.250022  0.249999  1
  Sn  Sn5  1  0.750063  0.749933  0.750007  1
  Sn  Sn6  1  0.750026  0.749969  0.250002  1
  Sn  Sn7  1  0.249928  0.250065  0.749992  1
  P  P8  1  0.973006  0.249988  -0.000006  1
  P  P9  1  0.249982  0.973031  0.500082  1
  P  P10  1  0.750022  0.033819  0.499996  1
  P  P11  1  0.533814  0.250033  0.499998  1
  P  P12  1  0.526971  0.250030  0.999911  1
  P  P13  1  0.249981  0.966195  0.000001  1
  P  P14  1  0.250010  0.526995  0.499999  1
  P  P15  1  0.473019  0.749974  0.500082  1
  P  P16  1  0.750071  0.466231  0.500065  1
  P  P17  1  0.749992  0.472998  0.000011  1
  P  P18  1  0.027009  0.750014  0.500007  1
  P  P19  1  0.033779  0.749941  0.999925  1
  P  P20  1  0.466186  0.749972  0.000006  1
  P  P21  1  0.750024  0.026982  -0.000081  1
  P  P22  1  0.966235  0.250063  0.500063  1
  P  P23  1  0.249932  0.533769  -0.000069  1
  O  O24  1  0.313658  0.049904  0.378478  1
  O  O25  1  0.313621  0.450140  0.621472  1
  O  O26  1  0.365967  0.634066  0.433444  1
  O  O27  1  0.139173  0.860793  0.927723  1
  O  O28  1  0.322601  0.042844  0.882411  1
  O  O29  1  0.450150  0.313638  0.878505  1
  O  O30  1  0.542852  0.822587  0.882412  1
  O  O31  1  0.950149  0.686373  0.378469  1
  O  O32  1  0.950151  0.813623  0.621487  1
  O  O33  1  0.639218  0.360840  0.572269  1
  O  O34  1  0.457175  0.322679  0.382369  1
  O  O35  1  0.186360  0.450159  0.378465  1
  O  O36  1  0.549862  0.686359  0.621491  1
  O  O37  1  0.186369  0.049860  0.621478  1
  O  O38  1  0.549911  0.813649  0.378479  1
  O  O39  1  0.677412  0.542916  0.382364  1
  O  O40  1  0.049845  0.186382  0.878515  1
  O  O41  1  0.634035  0.365939  0.066562  1
  O  O42  1  0.860870  0.360874  0.427717  1
  O  O43  1  0.139128  0.639137  0.072276  1
  O  O44  1  0.457170  0.177414  0.617588  1
  O  O45  1  0.177358  0.457161  0.882397  1
  O  O46  1  0.686382  0.549860  0.878526  1
  O  O47  1  0.177333  0.042828  0.117629  1
  O  O48  1  0.822646  0.542853  0.617607  1
  O  O49  1  0.134047  0.634047  0.566528  1
  O  O50  1  0.450097  0.186359  0.121514  1
  O  O51  1  0.049860  0.313632  0.121524  1
  O  O52  1  0.360793  0.639174  0.927733  1
  O  O53  1  0.542832  0.677319  0.117638  1
  O  O54  1  0.634055  0.134051  0.933430  1
  O  O55  1  0.957089  0.822594  0.117622  1
  O  O56  1  0.134069  0.865966  0.433445  1
  O  O57  1  0.813625  0.950131  0.878512  1
  O  O58  1  0.042844  0.322636  0.617601  1
  O  O59  1  0.639242  0.139243  0.427690  1
  O  O60  1  0.322589  0.457093  0.117631  1
  O  O61  1  0.042902  0.177402  0.382364  1
  O  O62  1  0.677396  0.957163  0.617594  1
  O  O63  1  0.365959  0.865949  0.566563  1
  O  O64  1  0.865938  0.134024  0.066551  1
  O  O65  1  0.360770  0.860761  0.072307  1
  O  O66  1  0.813638  0.549855  0.121543  1
  O  O67  1  0.865949  0.365961  0.933496  1
  O  O68  1  0.822665  0.957163  0.382372  1
  O  O69  1  0.860826  0.139206  0.572267  1
  O  O70  1  0.686345  0.950102  0.121530  1
  O  O71  1  0.957154  0.677361  0.882386  1
