# generated using pymatgen
data_Fe(PO3)3
_symmetry_space_group_name_H-M   'P 1'
_cell_length_a   8.51788641
_cell_length_b   8.59228779
_cell_length_c   8.66683756
_cell_angle_alpha   90.00000000
_cell_angle_beta   90.00000000
_cell_angle_gamma   90.00000000
_symmetry_Int_Tables_number   1
_chemical_formula_structural   Fe(PO3)3
_chemical_formula_sum   'Fe4 P12 O36'
_cell_volume   634.30964614
_cell_formula_units_Z   4
loop_
 _symmetry_equiv_pos_site_id
 _symmetry_equiv_pos_as_xyz
  1  'x, y, z'
loop_
 _atom_site_type_symbol
 _atom_site_label
 _atom_site_symmetry_multiplicity
 _atom_site_fract_x
 _atom_site_fract_y
 _atom_site_fract_z
 _atom_site_occupancy
  O  O0  1  0.636952  0.688631  0.358354  1
  O  O1  1  0.957384  0.719607  0.852625  1
  O  O2  1  0.909792  0.624280  0.580183  1
  O  O3  1  0.897911  0.875187  0.381164  1
  O  O4  1  0.042616  0.219607  0.647375  1
  O  O5  1  0.090209  0.124280  0.919817  1
  O  O6  1  0.102089  0.375186  0.118836  1
  O  O7  1  0.100106  0.597236  0.317815  1
  O  O8  1  0.136952  0.811369  0.641646  1
  O  O9  1  0.143591  0.532236  0.743377  1
  O  O10  1  0.153361  0.160240  0.387384  1
  O  O11  1  0.191131  0.917361  0.135209  1
  O  O12  1  0.221526  0.636652  0.052194  1
  O  O13  1  0.278475  0.363349  0.552193  1
  O  O14  1  0.308869  0.082638  0.635209  1
  O  O15  1  0.346638  0.839760  0.887385  1
  O  O16  1  0.356410  0.467763  0.243377  1
  O  O17  1  0.363048  0.188632  0.141646  1
  O  O18  1  0.399894  0.402765  0.817814  1
  O  O19  1  0.397910  0.624813  0.618836  1
  O  O20  1  0.409791  0.875720  0.419817  1
  O  O21  1  0.457383  0.780393  0.147376  1
  O  O22  1  0.542616  0.280393  0.352625  1
  O  O23  1  0.863048  0.311369  0.858354  1
  O  O24  1  0.602089  0.124813  0.881164  1
  O  O25  1  0.600107  0.902764  0.682185  1
  O  O26  1  0.899894  0.097235  0.182186  1
  O  O27  1  0.643591  0.967764  0.256623  1
  O  O28  1  0.653361  0.339760  0.612616  1
  O  O29  1  0.691131  0.582639  0.864791  1
  O  O30  1  0.721525  0.863348  0.947806  1
  O  O31  1  0.778475  0.136651  0.447807  1
  O  O32  1  0.808869  0.417362  0.364791  1
  O  O33  1  0.846639  0.660240  0.112615  1
  O  O34  1  0.856409  0.032237  0.756623  1
  O  O35  1  0.590208  0.375719  0.080183  1
  P  P36  1  0.682273  0.985330  0.812558  1
  P  P37  1  0.701375  0.308415  0.449574  1
  P  P38  1  0.798625  0.691586  0.949575  1
  P  P39  1  0.817727  0.014670  0.312559  1
  P  P40  1  0.034739  0.677342  0.690047  1
  P  P41  1  0.182272  0.514670  0.187442  1
  P  P42  1  0.201376  0.191585  0.550426  1
  P  P43  1  0.298625  0.808414  0.050425  1
  P  P44  1  0.317728  0.485330  0.687441  1
  P  P45  1  0.465261  0.322658  0.190047  1
  P  P46  1  0.534739  0.822658  0.309953  1
  P  P47  1  0.965261  0.177343  0.809953  1
  Fe  Fe48  1  0.868217  0.642775  0.351040  1
  Fe  Fe49  1  0.631784  0.357225  0.851040  1
  Fe  Fe50  1  0.368216  0.857225  0.648960  1
  Fe  Fe51  1  0.131784  0.142774  0.148960  1
