# generated using pymatgen
data_LiFeP2O7
_symmetry_space_group_name_H-M   'P 1'
_cell_length_a   5.26770960
_cell_length_b   5.26770960
_cell_length_c   4.55421270
_cell_angle_alpha   81.46697836
_cell_angle_beta   98.53302157
_cell_angle_gamma   77.52837729
_symmetry_Int_Tables_number   1
_chemical_formula_structural   LiFeP2O7
_chemical_formula_sum   'Li1 Fe1 P2 O7'
_cell_volume   119.87676225
_cell_formula_units_Z   1
loop_
 _symmetry_equiv_pos_site_id
 _symmetry_equiv_pos_as_xyz
  1  'x, y, z'
loop_
 _atom_site_type_symbol
 _atom_site_label
 _atom_site_symmetry_multiplicity
 _atom_site_fract_x
 _atom_site_fract_y
 _atom_site_fract_z
 _atom_site_occupancy
  Li  Li0  1  0.750036  0.750035  0.000000  1
  O  O1  1  0.127653  0.462992  0.744644  1
  O  O2  1  0.073113  0.816532  0.289363  1
  O  O3  1  0.347629  0.844226  0.802388  1
  O  O4  1  0.526690  0.526688  0.500001  1
  O  O5  1  0.844226  0.347627  0.197613  1
  O  O6  1  0.462992  0.127654  0.255355  1
  O  O7  1  0.816533  0.073115  0.710635  1
  P  P8  1  0.253042  0.667693  0.590316  1
  P  P9  1  0.667692  0.253041  0.409683  1
  Fe  Fe10  1  0.125246  0.125244  0.000000  1
