# generated using pymatgen
data_MnP2O7
_symmetry_space_group_name_H-M   'P 1'
_cell_length_a   6.20518871
_cell_length_b   6.20500585
_cell_length_c   13.00418789
_cell_angle_alpha   79.30020368
_cell_angle_beta   77.63697857
_cell_angle_gamma   99.33748836
_symmetry_Int_Tables_number   1
_chemical_formula_structural   MnP2O7
_chemical_formula_sum   'Mn4 P8 O28'
_cell_volume   469.82513935
_cell_formula_units_Z   4
loop_
 _symmetry_equiv_pos_site_id
 _symmetry_equiv_pos_as_xyz
  1  'x, y, z'
loop_
 _atom_site_type_symbol
 _atom_site_label
 _atom_site_symmetry_multiplicity
 _atom_site_fract_x
 _atom_site_fract_y
 _atom_site_fract_z
 _atom_site_occupancy
  Mn  Mn0  1  0.267196  0.121373  0.142795  1
  Mn  Mn1  1  0.235845  0.590006  0.642782  1
  Mn  Mn2  1  0.764155  0.409994  0.357218  1
  Mn  Mn3  1  0.732804  0.878627  0.857205  1
  O  O4  1  0.219145  0.809320  0.135431  1
  O  O5  1  0.084051  0.472497  0.354687  1
  O  O6  1  0.128420  0.025693  0.297766  1
  O  O7  1  0.031130  0.882518  0.881493  1
  O  O8  1  0.088286  0.194743  0.518614  1
  O  O9  1  0.327256  0.438765  0.145286  1
  O  O10  1  0.264099  0.912641  0.618484  1
  O  O11  1  0.298106  0.598545  0.490082  1
  O  O12  1  0.176618  0.573798  0.797743  1
  O  O13  1  0.588629  0.788295  0.009915  1
  O  O14  1  0.236315  0.273955  0.676348  1
  O  O15  1  0.213404  0.606926  0.981372  1
  O  O16  1  0.444761  0.354594  0.364578  1
  O  O17  1  0.549665  0.087286  0.176364  1
  O  O18  1  0.450335  0.912714  0.823636  1
  O  O19  1  0.555238  0.645406  0.635422  1
  O  O20  1  0.786596  0.393074  0.018628  1
  O  O21  1  0.763685  0.726045  0.323652  1
  O  O22  1  0.411371  0.211705  0.990085  1
  O  O23  1  0.823382  0.426202  0.202257  1
  O  O24  1  0.701894  0.401455  0.509918  1
  O  O25  1  0.735901  0.087359  0.381516  1
  O  O26  1  0.672744  0.561235  0.854714  1
  O  O27  1  0.911714  0.805257  0.481386  1
  O  O28  1  0.968870  0.117482  0.118507  1
  O  O29  1  0.871580  0.974307  0.702234  1
  O  O30  1  0.915949  0.527503  0.645313  1
  O  O31  1  0.780855  0.190680  0.864569  1
  P  P32  1  0.343969  0.666061  0.069961  1
  P  P33  1  0.235992  0.413918  0.430020  1
  P  P34  1  0.113406  0.082580  0.636298  1
  P  P35  1  0.218935  0.749709  0.863679  1
  P  P36  1  0.781065  0.250291  0.136321  1
  P  P37  1  0.886594  0.917420  0.363702  1
  P  P38  1  0.764008  0.586082  0.569980  1
  P  P39  1  0.656031  0.333939  0.930039  1
