# generated using pymatgen
data_LiSb(PO3)4
_symmetry_space_group_name_H-M   'P 1'
_cell_length_a   7.93179478
_cell_length_b   7.93179478
_cell_length_c   17.41370324
_cell_angle_alpha   90.00000000
_cell_angle_beta   90.00000000
_cell_angle_gamma   97.81820255
_symmetry_Int_Tables_number   1
_chemical_formula_structural   LiSb(PO3)4
_chemical_formula_sum   'Li4 Sb4 P16 O48'
_cell_volume   1085.37118994
_cell_formula_units_Z   4
loop_
 _symmetry_equiv_pos_site_id
 _symmetry_equiv_pos_as_xyz
  1  'x, y, z'
loop_
 _atom_site_type_symbol
 _atom_site_label
 _atom_site_symmetry_multiplicity
 _atom_site_fract_x
 _atom_site_fract_y
 _atom_site_fract_z
 _atom_site_occupancy
  Li  Li0  1  0.105480  0.178191  0.106423  1
  Li  Li1  1  0.821809  0.894520  0.893577  1
  Li  Li2  1  0.894520  0.821809  0.606423  1
  Li  Li3  1  0.178191  0.105480  0.393577  1
  O  O4  1  0.102787  0.929852  0.102122  1
  O  O5  1  0.070148  0.897213  0.897878  1
  O  O6  1  0.058535  0.646280  0.021657  1
  O  O7  1  0.353720  0.941465  0.978343  1
  O  O8  1  0.140541  0.683807  0.767011  1
  O  O9  1  0.316193  0.859459  0.232989  1
  O  O10  1  0.354709  0.899229  0.693233  1
  O  O11  1  0.100771  0.645291  0.306767  1
  O  O12  1  0.364629  0.891610  0.837956  1
  O  O13  1  0.108390  0.635371  0.162044  1
  O  O14  1  0.195347  0.610357  0.457178  1
  O  O15  1  0.389643  0.804653  0.542822  1
  O  O16  1  0.214030  0.459649  0.896011  1
  O  O17  1  0.540351  0.785970  0.103989  1
  O  O18  1  0.351218  0.547952  0.234938  1
  O  O19  1  0.452048  0.648782  0.765062  1
  O  O20  1  0.510104  0.618254  0.439596  1
  O  O21  1  0.381746  0.489896  0.560404  1
  O  O22  1  0.163080  0.274661  0.618706  1
  O  O23  1  0.725339  0.836920  0.381294  1
  O  O24  1  0.729075  0.781185  0.982871  1
  O  O25  1  0.218815  0.270925  0.017129  1
  O  O26  1  0.704530  0.751529  0.678106  1
  O  O27  1  0.248471  0.295470  0.321894  1
  O  O28  1  0.295470  0.248471  0.178106  1
  O  O29  1  0.751529  0.704530  0.821894  1
  O  O30  1  0.270925  0.218815  0.482871  1
  O  O31  1  0.781185  0.729075  0.517129  1
  O  O32  1  0.836920  0.725339  0.118706  1
  O  O33  1  0.274661  0.163080  0.881294  1
  O  O34  1  0.489896  0.381746  0.939596  1
  O  O35  1  0.618254  0.510104  0.060404  1
  O  O36  1  0.547952  0.351218  0.265062  1
  O  O37  1  0.648782  0.452048  0.734938  1
  O  O38  1  0.459649  0.214030  0.603989  1
  O  O39  1  0.785970  0.540351  0.396011  1
  O  O40  1  0.804653  0.389643  0.957178  1
  O  O41  1  0.610357  0.195347  0.042822  1
  O  O42  1  0.635371  0.108390  0.337956  1
  O  O43  1  0.891610  0.364629  0.662044  1
  O  O44  1  0.645291  0.100771  0.193233  1
  O  O45  1  0.899229  0.354709  0.806767  1
  O  O46  1  0.683807  0.140541  0.732989  1
  O  O47  1  0.859459  0.316193  0.267011  1
  O  O48  1  0.646280  0.058535  0.478343  1
  O  O49  1  0.941465  0.353720  0.521657  1
  O  O50  1  0.897213  0.070148  0.602122  1
  O  O51  1  0.929852  0.102787  0.397878  1
  P  P52  1  0.036264  0.743571  0.093258  1
  P  P53  1  0.256429  0.963736  0.906742  1
  P  P54  1  0.218062  0.684706  0.238190  1
  P  P55  1  0.315294  0.781938  0.761810  1
  P  P56  1  0.361295  0.638705  0.500000  1
  P  P57  1  0.679906  0.713387  0.060257  1
  P  P58  1  0.286613  0.320094  0.939743  1
  P  P59  1  0.347949  0.347949  0.250000  1
  P  P60  1  0.652051  0.652051  0.750000  1
  P  P61  1  0.320094  0.286613  0.560257  1
  P  P62  1  0.713387  0.679906  0.439743  1
  P  P63  1  0.638705  0.361295  0.000000  1
  P  P64  1  0.684706  0.218062  0.261810  1
  P  P65  1  0.781938  0.315294  0.738190  1
  P  P66  1  0.743571  0.036264  0.406742  1
  P  P67  1  0.963736  0.256429  0.593258  1
  Sb  Sb68  1  0.015417  0.433463  0.385167  1
  Sb  Sb69  1  0.566537  0.984583  0.614833  1
  Sb  Sb70  1  0.433463  0.015417  0.114833  1
  Sb  Sb71  1  0.984583  0.566537  0.885167  1
