# generated using pymatgen
data_LiNb(PO3)4
_symmetry_space_group_name_H-M   'P 1'
_cell_length_a   7.42482652
_cell_length_b   7.42482652
_cell_length_c   10.00116731
_cell_angle_alpha   81.27717476
_cell_angle_beta   70.43089574
_cell_angle_gamma   110.15476583
_symmetry_Int_Tables_number   1
_chemical_formula_structural   LiNb(PO3)4
_chemical_formula_sum   'Li2 Nb2 P8 O24'
_cell_volume   464.92789350
_cell_formula_units_Z   2
loop_
 _symmetry_equiv_pos_site_id
 _symmetry_equiv_pos_as_xyz
  1  'x, y, z'
loop_
 _atom_site_type_symbol
 _atom_site_label
 _atom_site_symmetry_multiplicity
 _atom_site_fract_x
 _atom_site_fract_y
 _atom_site_fract_z
 _atom_site_occupancy
  Li  Li0  1  0.000000  0.500000  0.000000  1
  Li  Li1  1  0.999999  0.999999  0.500001  1
  O  O2  1  0.560639  0.772514  0.940545  1
  O  O3  1  0.861767  0.189227  0.420485  1
  O  O4  1  0.029881  0.643132  0.160344  1
  O  O5  1  0.138234  0.810773  0.579515  1
  O  O6  1  0.184527  0.695692  0.347297  1
  O  O7  1  0.498557  0.837655  0.404934  1
  O  O8  1  0.304994  0.722706  0.826349  1
  O  O9  1  0.213059  0.501185  0.559455  1
  O  O10  1  0.109712  0.282252  0.079515  1
  O  O11  1  0.742589  0.903490  0.095066  1
  O  O12  1  0.970120  0.356869  0.839655  1
  O  O13  1  0.696524  0.809775  0.660345  1
  O  O14  1  0.542989  0.531825  0.152702  1
  O  O15  1  0.049054  0.131343  0.673651  1
  O  O16  1  0.950945  0.868657  0.326349  1
  O  O17  1  0.457010  0.468175  0.847299  1
  O  O18  1  0.815473  0.304308  0.652702  1
  O  O19  1  0.439361  0.227486  0.059454  1
  O  O20  1  0.257410  0.096510  0.904935  1
  O  O21  1  0.890288  0.717748  0.920485  1
  O  O22  1  0.786940  0.498815  0.440546  1
  O  O23  1  0.695005  0.277294  0.173651  1
  O  O24  1  0.501444  0.162344  0.595066  1
  O  O25  1  0.303477  0.190225  0.339655  1
  P  P26  1  0.736259  0.275360  0.524444  1
  P  P27  1  0.989280  0.685572  0.304167  1
  P  P28  1  0.263742  0.724642  0.475556  1
  P  P29  1  0.010720  0.314428  0.695832  1
  P  P30  1  0.510261  0.706553  0.804167  1
  P  P31  1  0.489739  0.293447  0.195832  1
  P  P32  1  0.299803  0.260702  0.975556  1
  P  P33  1  0.700197  0.739298  0.024444  1
  Nb  Nb34  1  0.193519  0.943519  0.750000  1
  Nb  Nb35  1  0.806480  0.056480  0.250000  1
