# generated using pymatgen
data_Mn2P3O11
_symmetry_space_group_name_H-M   'P 1'
_cell_length_a   7.27500631
_cell_length_b   7.27500655
_cell_length_c   8.90883517
_cell_angle_alpha   70.19044777
_cell_angle_beta   109.80955296
_cell_angle_gamma   108.75585382
_symmetry_Int_Tables_number   1
_chemical_formula_structural   Mn2P3O11
_chemical_formula_sum   'Mn4 P6 O22'
_cell_volume   405.81668625
_cell_formula_units_Z   2
loop_
 _symmetry_equiv_pos_site_id
 _symmetry_equiv_pos_as_xyz
  1  'x, y, z'
loop_
 _atom_site_type_symbol
 _atom_site_label
 _atom_site_symmetry_multiplicity
 _atom_site_fract_x
 _atom_site_fract_y
 _atom_site_fract_z
 _atom_site_occupancy
  Mn  Mn0  1  0.117588  0.362777  0.956902  1
  Mn  Mn1  1  0.637505  0.882804  0.457130  1
  Mn  Mn2  1  0.362777  0.117588  0.543098  1
  Mn  Mn3  1  0.882804  0.637505  0.042870  1
  P  P4  1  0.330236  0.548669  0.286342  1
  P  P5  1  0.963927  0.963927  0.250000  1
  P  P6  1  0.452929  0.667078  0.787116  1
  P  P7  1  0.548669  0.330236  0.213658  1
  P  P8  1  0.667078  0.452929  0.712884  1
  P  P9  1  0.036360  0.036360  0.750000  1
  O  O10  1  0.468459  0.842988  0.629387  1
  O  O11  1  0.625591  0.711290  0.936942  1
  O  O12  1  0.134380  0.984343  0.407144  1
  O  O13  1  0.246142  0.610186  0.819560  1
  O  O14  1  0.711290  0.625591  0.563058  1
  O  O15  1  0.984343  0.134380  0.092856  1
  O  O16  1  0.391747  0.757043  0.316686  1
  O  O17  1  0.960698  0.761997  0.225244  1
  O  O18  1  0.842988  0.468459  0.870613  1
  O  O19  1  0.283032  0.377044  0.434531  1
  O  O20  1  0.237547  0.039599  0.725315  1
  O  O21  1  0.757043  0.391747  0.183314  1
  O  O22  1  0.761997  0.960698  0.274756  1
  O  O23  1  0.475577  0.475577  0.750000  1
  O  O24  1  0.865691  0.014281  0.592714  1
  O  O25  1  0.536913  0.154106  0.372737  1
  O  O26  1  0.377044  0.283032  0.065469  1
  O  O27  1  0.039599  0.237547  0.774685  1
  O  O28  1  0.154106  0.536913  0.127263  1
  O  O29  1  0.610186  0.246142  0.680440  1
  O  O30  1  0.014281  0.865691  0.907286  1
  O  O31  1  0.519976  0.519976  0.250000  1
