# generated using pymatgen
data_Li4Fe5(P3O11)2
_symmetry_space_group_name_H-M   'P 1'
_cell_length_a   12.69862362
_cell_length_b   6.58567374
_cell_length_c   10.88060087
_cell_angle_alpha   90.00000000
_cell_angle_beta   103.56415959
_cell_angle_gamma   90.00000000
_symmetry_Int_Tables_number   1
_chemical_formula_structural   Li4Fe5(P3O11)2
_chemical_formula_sum   'Li8 Fe10 P12 O44'
_cell_volume   884.55372200
_cell_formula_units_Z   2
loop_
 _symmetry_equiv_pos_site_id
 _symmetry_equiv_pos_as_xyz
  1  'x, y, z'
loop_
 _atom_site_type_symbol
 _atom_site_label
 _atom_site_symmetry_multiplicity
 _atom_site_fract_x
 _atom_site_fract_y
 _atom_site_fract_z
 _atom_site_occupancy
  Li  Li0  1  0.187493  0.142748  0.569391  1
  Li  Li1  1  0.812507  0.857252  0.430609  1
  Li  Li2  1  0.663262  0.471418  0.112221  1
  Li  Li3  1  0.812506  0.642747  0.930609  1
  Li  Li4  1  0.663263  0.028582  0.612220  1
  Li  Li5  1  0.336737  0.971419  0.387780  1
  Li  Li6  1  0.187494  0.357252  0.069391  1
  Li  Li7  1  0.336738  0.528582  0.887779  1
  O  O8  1  0.271946  0.790717  0.943613  1
  O  O9  1  0.835536  0.583792  0.741910  1
  O  O10  1  0.821367  0.559524  0.451824  1
  O  O11  1  0.728054  0.209283  0.056387  1
  O  O12  1  0.835536  0.916208  0.241910  1
  O  O13  1  0.833943  0.548984  0.169528  1
  O  O14  1  0.990519  0.804016  0.850548  1
  O  O15  1  0.985669  0.728953  0.631920  1
  O  O16  1  0.990519  0.695983  0.350547  1
  O  O17  1  0.985668  0.771048  0.131919  1
  O  O18  1  0.014332  0.228953  0.868081  1
  O  O19  1  0.009481  0.304017  0.649453  1
  O  O20  1  0.014332  0.271048  0.368080  1
  O  O21  1  0.009481  0.195983  0.149452  1
  O  O22  1  0.166057  0.451015  0.830472  1
  O  O23  1  0.164464  0.083791  0.758090  1
  O  O24  1  0.178633  0.440476  0.548176  1
  O  O25  1  0.833944  0.951015  0.669528  1
  O  O26  1  0.166056  0.048984  0.330472  1
  O  O27  1  0.164464  0.416209  0.258090  1
  O  O28  1  0.253324  0.756038  0.671838  1
  O  O29  1  0.178633  0.059524  0.048177  1
  O  O30  1  0.271946  0.709282  0.443612  1
  O  O31  1  0.389438  0.234406  0.934454  1
  O  O32  1  0.253324  0.743961  0.171838  1
  O  O33  1  0.351616  0.118428  0.631965  1
  O  O34  1  0.382214  0.499309  0.622479  1
  O  O35  1  0.460268  0.766384  0.860922  1
  O  O36  1  0.389438  0.265593  0.434453  1
  O  O37  1  0.351616  0.381572  0.131965  1
  O  O38  1  0.382214  0.000692  0.122479  1
  O  O39  1  0.460268  0.733615  0.360921  1
  O  O40  1  0.539732  0.266385  0.639079  1
  O  O41  1  0.617786  0.999309  0.877521  1
  O  O42  1  0.648384  0.618428  0.868035  1
  O  O43  1  0.610562  0.734407  0.565547  1
  O  O44  1  0.539732  0.233615  0.139078  1
  O  O45  1  0.617786  0.500691  0.377521  1
  O  O46  1  0.746676  0.243962  0.328163  1
  O  O47  1  0.746676  0.256038  0.828162  1
  O  O48  1  0.610562  0.765593  0.065546  1
  O  O49  1  0.728054  0.290717  0.556388  1
  O  O50  1  0.821367  0.940475  0.951823  1
  O  O51  1  0.648384  0.881572  0.368036  1
  P  P52  1  0.264937  0.605127  0.568613  1
  P  P53  1  0.264936  0.894874  0.068614  1
  P  P54  1  0.418556  0.276800  0.579919  1
  P  P55  1  0.092328  0.232230  0.278980  1
  P  P56  1  0.581445  0.776801  0.920082  1
  P  P57  1  0.418556  0.223200  0.079918  1
  P  P58  1  0.581444  0.723200  0.420082  1
  P  P59  1  0.735064  0.105127  0.931386  1
  P  P60  1  0.735064  0.394873  0.431387  1
  P  P61  1  0.907672  0.767769  0.721020  1
  P  P62  1  0.092328  0.267769  0.778980  1
  P  P63  1  0.907672  0.732230  0.221020  1
  Fe  Fe64  1  0.867703  0.242150  0.219218  1
  Fe  Fe65  1  0.867703  0.257850  0.719218  1
  Fe  Fe66  1  0.657274  0.014045  0.194836  1
  Fe  Fe67  1  0.657273  0.485955  0.694837  1
  Fe  Fe68  1  0.342727  0.514044  0.305163  1
  Fe  Fe69  1  0.342726  0.985956  0.805164  1
  Fe  Fe70  1  0.132297  0.742150  0.280782  1
  Fe  Fe71  1  0.000000  0.000000  0.000000  1
  Fe  Fe72  1  0.132297  0.757850  0.780782  1
  Fe  Fe73  1  0.000000  0.500000  0.500000  1
