# generated using pymatgen
data_Li9Mn3P8O29
_symmetry_space_group_name_H-M   'P 1'
_cell_length_a   9.74078343
_cell_length_b   9.93267134
_cell_length_c   13.80554220
_cell_angle_alpha   91.63476290
_cell_angle_beta   90.02899536
_cell_angle_gamma   119.32872986
_symmetry_Int_Tables_number   1
_chemical_formula_structural   Li9Mn3P8O29
_chemical_formula_sum   'Li18 Mn6 P16 O58'
_cell_volume   1163.87241114
_cell_formula_units_Z   2
loop_
 _symmetry_equiv_pos_site_id
 _symmetry_equiv_pos_as_xyz
  1  'x, y, z'
loop_
 _atom_site_type_symbol
 _atom_site_label
 _atom_site_symmetry_multiplicity
 _atom_site_fract_x
 _atom_site_fract_y
 _atom_site_fract_z
 _atom_site_occupancy
  Li  Li0  1  0.103879  0.763640  0.936694  1
  Li  Li1  1  0.234646  0.903442  0.435701  1
  Li  Li2  1  0.099243  0.332498  0.438057  1
  Li  Li3  1  0.333838  0.662423  0.119882  1
  Li  Li4  1  0.327686  0.661917  0.619877  1
  Li  Li5  1  0.232804  0.331370  0.938084  1
  Li  Li6  1  0.668624  0.903947  0.935666  1
  Li  Li7  1  0.339603  0.236107  0.563432  1
  Li  Li8  1  0.660746  0.763905  0.436646  1
  Li  Li9  1  0.331733  0.096368  0.064222  1
  Li  Li10  1  0.766274  0.667964  0.061886  1
  Li  Li11  1  0.672425  0.337858  0.379900  1
  Li  Li12  1  0.999416  0.997139  0.001530  1
  Li  Li13  1  0.665905  0.337886  0.879824  1
  Li  Li14  1  0.901040  0.667656  0.561796  1
  Li  Li15  1  0.765164  0.096199  0.564262  1
  Li  Li16  1  0.896486  0.236134  0.063168  1
  Li  Li17  1  0.000699  0.001191  0.501159  1
  O  O18  1  0.665721  0.753389  0.146998  1
  O  O19  1  0.912734  0.246703  0.353127  1
  O  O20  1  0.786247  0.999991  0.250089  1
  O  O21  1  0.770256  0.009475  0.067431  1
  O  O22  1  0.746637  0.071976  0.841467  1
  O  O23  1  0.880503  0.363706  0.836753  1
  O  O24  1  0.002022  0.783231  0.431892  1
  O  O25  1  0.087281  0.753153  0.647020  1
  O  O26  1  0.213560  0.999788  0.750132  1
  O  O27  1  0.230577  0.990248  0.932732  1
  O  O28  1  0.253460  0.928514  0.158657  1
  O  O29  1  0.118583  0.636583  0.162373  1
  O  O30  1  0.188168  0.669498  0.834147  1
  O  O31  1  0.103196  0.472334  0.666116  1
  O  O32  1  0.998073  0.224792  0.934013  1
  O  O33  1  0.000589  0.214119  0.751522  1
  O  O34  1  0.073126  0.325981  0.158458  1
  O  O35  1  0.313667  0.799161  0.345591  1
  O  O36  1  0.379526  0.895662  0.666860  1
  O  O37  1  0.181722  0.502383  0.334860  1
  O  O38  1  0.316756  0.646455  0.985602  1
  O  O39  1  0.327967  0.644709  0.485594  1
  O  O40  1  0.321103  0.502509  0.835594  1
  O  O41  1  0.515749  0.895595  0.167281  1
  O  O42  1  0.485545  0.799359  0.845358  1
  O  O43  1  0.253032  0.325812  0.658841  1
  O  O44  1  0.213949  0.214370  0.251465  1
  O  O45  1  0.226849  0.224999  0.433983  1
  O  O46  1  0.218140  0.215740  0.068306  1
  O  O47  1  0.369267  0.472811  0.166244  1
  O  O48  1  0.481383  0.669311  0.334655  1
  O  O49  1  0.516932  0.636350  0.662902  1
  O  O50  1  0.333983  0.246412  0.853198  1
  O  O51  1  0.674580  0.928118  0.658361  1
  O  O52  1  0.237984  0.009283  0.567439  1
  O  O53  1  0.760992  0.990580  0.432733  1
  O  O54  1  0.325412  0.071925  0.341775  1
  O  O55  1  0.998137  0.215177  0.568359  1
  O  O56  1  0.483402  0.363599  0.336879  1
  O  O57  1  0.518739  0.330539  0.665191  1
  O  O58  1  0.630723  0.526860  0.833507  1
  O  O59  1  0.780995  0.783367  0.931996  1
  O  O60  1  0.773958  0.775705  0.566291  1
  O  O61  1  0.785902  0.785809  0.748879  1
  O  O62  1  0.747110  0.673900  0.341354  1
  O  O63  1  0.514506  0.200881  0.154378  1
  O  O64  1  0.484533  0.104963  0.832431  1
  O  O65  1  0.679206  0.497669  0.164369  1
  O  O66  1  0.672158  0.355372  0.514184  1
  O  O67  1  0.683070  0.354163  0.014113  1
  O  O68  1  0.818325  0.497774  0.664873  1
  O  O69  1  0.620604  0.104857  0.332903  1
  O  O70  1  0.926850  0.674107  0.841679  1
  O  O71  1  0.686637  0.200919  0.654104  1
  O  O72  1  0.999641  0.786187  0.248799  1
  O  O73  1  0.811835  0.330365  0.165317  1
  O  O74  1  0.896430  0.526985  0.333197  1
  O  O75  1  0.001828  0.777586  0.066261  1
  P  P76  1  0.905642  0.224887  0.844993  1
  P  P77  1  0.769141  0.086520  0.346398  1
  P  P78  1  0.912033  0.689008  0.341860  1
  P  P79  1  0.675206  0.342863  0.623206  1
  P  P80  1  0.667630  0.342557  0.123161  1
  P  P81  1  0.776908  0.688994  0.842035  1
  P  P82  1  0.094190  0.775948  0.155033  1
  P  P83  1  0.230653  0.913482  0.653719  1
  P  P84  1  0.087981  0.310475  0.658207  1
  P  P85  1  0.324927  0.657154  0.376569  1
  P  P86  1  0.332443  0.657611  0.876543  1
  P  P87  1  0.680780  0.775165  0.655074  1
  P  P88  1  0.319485  0.225020  0.345055  1
  P  P89  1  0.682463  0.913685  0.153775  1
  P  P90  1  0.317645  0.086292  0.846326  1
  P  P91  1  0.222953  0.310779  0.158086  1
  Mn  Mn92  1  0.001711  0.565229  0.749802  1
  Mn  Mn93  1  0.436622  0.434645  0.750204  1
  Mn  Mn94  1  0.563476  0.565231  0.249739  1
  Mn  Mn95  1  0.432286  0.000165  0.250177  1
  Mn  Mn96  1  0.567845  0.000150  0.749775  1
  Mn  Mn97  1  0.998205  0.434698  0.249854  1
