# generated using pymatgen
data_LiCoP2O7
_symmetry_space_group_name_H-M   'P 1'
_cell_length_a   5.07604022
_cell_length_b   7.91864926
_cell_length_c   13.45187639
_cell_angle_alpha   90.00000000
_cell_angle_beta   89.74459481
_cell_angle_gamma   90.00000000
_symmetry_Int_Tables_number   1
_chemical_formula_structural   LiCoP2O7
_chemical_formula_sum   'Li4 Co4 P8 O28'
_cell_volume   540.69793938
_cell_formula_units_Z   4
loop_
 _symmetry_equiv_pos_site_id
 _symmetry_equiv_pos_as_xyz
  1  'x, y, z'
loop_
 _atom_site_type_symbol
 _atom_site_label
 _atom_site_symmetry_multiplicity
 _atom_site_fract_x
 _atom_site_fract_y
 _atom_site_fract_z
 _atom_site_occupancy
  Li  Li0  1  0.730604  0.727716  0.757624  1
  Li  Li1  1  0.269396  0.272284  0.242376  1
  Li  Li2  1  0.230604  0.772284  0.257624  1
  Li  Li3  1  0.769396  0.227716  0.742376  1
  Co  Co4  1  0.796540  0.152593  0.116660  1
  Co  Co5  1  0.296540  0.347407  0.616660  1
  Co  Co6  1  0.703460  0.652593  0.383340  1
  Co  Co7  1  0.203460  0.847407  0.883340  1
  P  P8  1  0.749681  0.532786  0.179207  1
  P  P9  1  0.750319  0.032786  0.320793  1
  P  P10  1  0.697076  0.794283  0.023670  1
  P  P11  1  0.250319  0.467214  0.820793  1
  P  P12  1  0.302924  0.205717  0.976330  1
  P  P13  1  0.197076  0.705717  0.523670  1
  P  P14  1  0.249681  0.967214  0.679207  1
  P  P15  1  0.802924  0.294283  0.476330  1
  O  O16  1  0.901417  0.680808  0.510482  1
  O  O17  1  0.444316  0.362973  0.757643  1
  O  O18  1  0.526498  0.964120  0.720274  1
  O  O19  1  0.346656  0.702997  0.423614  1
  O  O20  1  0.598583  0.180808  0.989518  1
  O  O21  1  0.813654  0.915346  0.102086  1
  O  O22  1  0.248155  0.891771  0.566792  1
  O  O23  1  0.153344  0.202997  0.076386  1
  O  O24  1  0.846656  0.797003  0.923614  1
  O  O25  1  0.401417  0.819192  0.010482  1
  O  O26  1  0.870464  0.854040  0.336572  1
  O  O27  1  0.473502  0.035880  0.279726  1
  O  O28  1  0.129536  0.145960  0.663428  1
  O  O29  1  0.653344  0.297003  0.576386  1
  O  O30  1  0.555684  0.637027  0.242357  1
  O  O31  1  0.751845  0.108229  0.433208  1
  O  O32  1  0.370464  0.645960  0.836572  1
  O  O33  1  0.186346  0.084654  0.897914  1
  O  O34  1  0.026498  0.535880  0.220274  1
  O  O35  1  0.973502  0.464120  0.779726  1
  O  O36  1  0.629536  0.354040  0.163428  1
  O  O37  1  0.686346  0.415346  0.397914  1
  O  O38  1  0.313654  0.584654  0.602086  1
  O  O39  1  0.944316  0.137027  0.257643  1
  O  O40  1  0.748155  0.608229  0.066792  1
  O  O41  1  0.251845  0.391771  0.933208  1
  O  O42  1  0.098583  0.319192  0.489518  1
  O  O43  1  0.055684  0.862973  0.742357  1
