# generated using pymatgen
data_Li2CuPO4
_symmetry_space_group_name_H-M   'P 1'
_cell_length_a   10.85905508
_cell_length_b   6.20359424
_cell_length_c   5.13219539
_cell_angle_alpha   90.00000000
_cell_angle_beta   89.36063447
_cell_angle_gamma   90.00000000
_symmetry_Int_Tables_number   1
_chemical_formula_structural   Li2CuPO4
_chemical_formula_sum   'Li8 Cu4 P4 O16'
_cell_volume   345.70969722
_cell_formula_units_Z   4
loop_
 _symmetry_equiv_pos_site_id
 _symmetry_equiv_pos_as_xyz
  1  'x, y, z'
loop_
 _atom_site_type_symbol
 _atom_site_label
 _atom_site_symmetry_multiplicity
 _atom_site_fract_x
 _atom_site_fract_y
 _atom_site_fract_z
 _atom_site_occupancy
  Li  Li0  1  0.661439  0.997127  0.796339  1
  Li  Li1  1  0.661439  0.502873  0.796339  1
  Li  Li2  1  0.572629  0.250000  0.195590  1
  Li  Li3  1  0.341862  0.498695  0.197663  1
  Li  Li4  1  0.076664  0.250000  0.304431  1
  Li  Li5  1  0.162367  0.506063  0.696793  1
  Li  Li6  1  0.162367  0.993937  0.696793  1
  Li  Li7  1  0.341862  0.001305  0.197663  1
  O  O8  1  0.840282  0.050926  0.715947  1
  O  O9  1  0.840282  0.449074  0.715947  1
  O  O10  1  0.921663  0.250000  0.114078  1
  O  O11  1  0.342050  0.050262  0.797530  1
  O  O12  1  0.048768  0.250000  0.693682  1
  O  O13  1  0.648698  0.958759  0.193947  1
  O  O14  1  0.171681  0.542072  0.302601  1
  O  O15  1  0.171681  0.957928  0.302601  1
  O  O16  1  0.101487  0.750000  0.901693  1
  O  O17  1  0.342050  0.449738  0.797530  1
  O  O18  1  0.414410  0.250000  0.386654  1
  O  O19  1  0.448629  0.750000  0.229955  1
  O  O20  1  0.548367  0.250000  0.793160  1
  O  O21  1  0.595884  0.750000  0.610428  1
  O  O22  1  0.648698  0.541241  0.193947  1
  O  O23  1  0.974385  0.750000  0.328850  1
  P  P24  1  0.106320  0.750000  0.203632  1
  P  P25  1  0.415000  0.250000  0.689277  1
  P  P26  1  0.585507  0.750000  0.308670  1
  P  P27  1  0.916598  0.250000  0.810038  1
  Cu  Cu28  1  0.880545  0.750000  0.774799  1
  Cu  Cu29  1  0.831708  0.553415  0.250823  1
  Cu  Cu30  1  0.831708  0.946585  0.250823  1
  Cu  Cu31  1  0.392970  0.750000  0.751778  1
