# generated using pymatgen
data_LiMn4(PO4)3
_symmetry_space_group_name_H-M   'P 1'
_cell_length_a   6.49709971
_cell_length_b   14.66404047
_cell_length_c   10.00928315
_cell_angle_alpha   90.00000000
_cell_angle_beta   90.00000000
_cell_angle_gamma   90.00000000
_symmetry_Int_Tables_number   1
_chemical_formula_structural   LiMn4(PO4)3
_chemical_formula_sum   'Li4 Mn16 P12 O48'
_cell_volume   953.62177121
_cell_formula_units_Z   4
loop_
 _symmetry_equiv_pos_site_id
 _symmetry_equiv_pos_as_xyz
  1  'x, y, z'
loop_
 _atom_site_type_symbol
 _atom_site_label
 _atom_site_symmetry_multiplicity
 _atom_site_fract_x
 _atom_site_fract_y
 _atom_site_fract_z
 _atom_site_occupancy
  Li  Li0  1  0.067687  0.250000  0.737927  1
  Li  Li1  1  0.432312  0.750000  0.237927  1
  Li  Li2  1  0.567687  0.250000  0.762073  1
  Li  Li3  1  0.932312  0.750000  0.262073  1
  O  O4  1  0.099434  0.014511  0.218720  1
  O  O5  1  0.970160  0.600710  0.039430  1
  O  O6  1  0.952113  0.250000  0.557927  1
  O  O7  1  0.914185  0.339303  0.350884  1
  O  O8  1  0.914185  0.160697  0.350884  1
  O  O9  1  0.900565  0.985489  0.781279  1
  O  O10  1  0.900565  0.514511  0.781279  1
  O  O11  1  0.670786  0.051496  0.968748  1
  O  O12  1  0.829215  0.551496  0.468748  1
  O  O13  1  0.793859  0.351565  0.767455  1
  O  O14  1  0.793859  0.148435  0.767455  1
  O  O15  1  0.755536  0.750000  0.616240  1
  O  O16  1  0.744464  0.250000  0.116240  1
  O  O17  1  0.706140  0.851565  0.267454  1
  O  O18  1  0.706140  0.648435  0.267454  1
  O  O19  1  0.670786  0.448504  0.968748  1
  O  O20  1  0.029839  0.100709  0.960570  1
  O  O21  1  0.029839  0.399291  0.960570  1
  O  O22  1  0.047887  0.750000  0.442073  1
  O  O23  1  0.085815  0.660697  0.649116  1
  O  O24  1  0.085815  0.839303  0.649116  1
  O  O25  1  0.970160  0.899291  0.039430  1
  O  O26  1  0.099434  0.485489  0.218720  1
  O  O27  1  0.170786  0.051496  0.531253  1
  O  O28  1  0.170786  0.448504  0.531253  1
  O  O29  1  0.206140  0.648435  0.232546  1
  O  O30  1  0.206140  0.851565  0.232546  1
  O  O31  1  0.244464  0.250000  0.383760  1
  O  O32  1  0.255536  0.750000  0.883760  1
  O  O33  1  0.293859  0.148435  0.732546  1
  O  O34  1  0.293859  0.351565  0.732546  1
  O  O35  1  0.329214  0.551496  0.031253  1
  O  O36  1  0.329214  0.948504  0.031253  1
  O  O37  1  0.400565  0.514511  0.718720  1
  O  O38  1  0.400565  0.985489  0.718720  1
  O  O39  1  0.414185  0.160697  0.149116  1
  O  O40  1  0.414185  0.339303  0.149116  1
  O  O41  1  0.452113  0.250000  0.942073  1
  O  O42  1  0.470161  0.600710  0.460570  1
  O  O43  1  0.470161  0.899291  0.460570  1
  O  O44  1  0.529839  0.100709  0.539430  1
  O  O45  1  0.529839  0.399291  0.539430  1
  O  O46  1  0.547886  0.750000  0.057927  1
  O  O47  1  0.585815  0.660697  0.850884  1
  O  O48  1  0.585815  0.839303  0.850884  1
  O  O49  1  0.599434  0.014511  0.281280  1
  O  O50  1  0.599434  0.485489  0.281280  1
  O  O51  1  0.829215  0.948504  0.468748  1
  P  P52  1  0.991880  0.750000  0.592816  1
  P  P53  1  0.850449  0.428025  0.866661  1
  P  P54  1  0.850449  0.071975  0.866661  1
  P  P55  1  0.649551  0.928025  0.366661  1
  P  P56  1  0.649551  0.571975  0.366661  1
  P  P57  1  0.508120  0.250000  0.092816  1
  P  P58  1  0.491880  0.750000  0.907184  1
  P  P59  1  0.350449  0.428025  0.633339  1
  P  P60  1  0.350449  0.071975  0.633339  1
  P  P61  1  0.149551  0.928025  0.133339  1
  P  P62  1  0.149551  0.571975  0.133339  1
  P  P63  1  0.008120  0.250000  0.407184  1
  Mn  Mn64  1  0.146448  0.902155  0.441104  1
  Mn  Mn65  1  0.156431  0.606754  0.839361  1
  Mn  Mn66  1  0.156431  0.893246  0.839361  1
  Mn  Mn67  1  0.146448  0.597845  0.441104  1
  Mn  Mn68  1  0.343569  0.106754  0.339361  1
  Mn  Mn69  1  0.343569  0.393246  0.339361  1
  Mn  Mn70  1  0.353552  0.097845  0.941103  1
  Mn  Mn71  1  0.353552  0.402155  0.941103  1
  Mn  Mn72  1  0.646448  0.597845  0.058896  1
  Mn  Mn73  1  0.646448  0.902155  0.058896  1
  Mn  Mn74  1  0.656431  0.606754  0.660638  1
  Mn  Mn75  1  0.656431  0.893246  0.660638  1
  Mn  Mn76  1  0.843569  0.106754  0.160638  1
  Mn  Mn77  1  0.843569  0.393246  0.160638  1
  Mn  Mn78  1  0.853553  0.097845  0.558896  1
  Mn  Mn79  1  0.853553  0.402155  0.558896  1
