# generated using pymatgen
data_LiSbP2O7
_symmetry_space_group_name_H-M   'P 1'
_cell_length_a   4.96257172
_cell_length_b   9.00189769
_cell_length_c   7.54757681
_cell_angle_alpha   90.00000000
_cell_angle_beta   106.06906337
_cell_angle_gamma   90.00000000
_symmetry_Int_Tables_number   1
_chemical_formula_structural   LiSbP2O7
_chemical_formula_sum   'Li2 Sb2 P4 O14'
_cell_volume   323.99596181
_cell_formula_units_Z   2
loop_
 _symmetry_equiv_pos_site_id
 _symmetry_equiv_pos_as_xyz
  1  'x, y, z'
loop_
 _atom_site_type_symbol
 _atom_site_label
 _atom_site_symmetry_multiplicity
 _atom_site_fract_x
 _atom_site_fract_y
 _atom_site_fract_z
 _atom_site_occupancy
  Li  Li0  1  0.203535  0.781344  0.653903  1
  Li  Li1  1  0.796465  0.281344  0.346097  1
  O  O2  1  0.066400  0.259829  0.880442  1
  O  O3  1  0.198084  0.692969  0.885822  1
  O  O4  1  0.227302  0.256866  0.540397  1
  O  O5  1  0.243092  0.972535  0.553858  1
  O  O6  1  0.389938  0.619261  0.554157  1
  O  O7  1  0.611722  0.390205  0.866337  1
  O  O8  1  0.605491  0.115377  0.784608  1
  O  O9  1  0.394509  0.615377  0.215392  1
  O  O10  1  0.388278  0.890205  0.133663  1
  O  O11  1  0.610062  0.119261  0.445843  1
  O  O12  1  0.756908  0.472535  0.446142  1
  O  O13  1  0.772698  0.756866  0.459603  1
  O  O14  1  0.801916  0.192969  0.114178  1
  O  O15  1  0.933600  0.759829  0.119558  1
  P  P16  1  0.416071  0.113224  0.571217  1
  P  P17  1  0.219740  0.742991  0.079651  1
  P  P18  1  0.780260  0.242991  0.920349  1
  P  P19  1  0.583929  0.613224  0.428783  1
  Sb  Sb20  1  0.199685  0.432053  0.722820  1
  Sb  Sb21  1  0.800315  0.932053  0.277180  1
