# generated using pymatgen
data_Li6Cr9(PO4)8
_symmetry_space_group_name_H-M   'P 1'
_cell_length_a   9.22117247
_cell_length_b   9.04506002
_cell_length_c   8.99646391
_cell_angle_alpha   102.71707776
_cell_angle_beta   99.52251134
_cell_angle_gamma   111.75504652
_symmetry_Int_Tables_number   1
_chemical_formula_structural   Li6Cr9(PO4)8
_chemical_formula_sum   'Li6 Cr9 P8 O32'
_cell_volume   654.06282365
_cell_formula_units_Z   1
loop_
 _symmetry_equiv_pos_site_id
 _symmetry_equiv_pos_as_xyz
  1  'x, y, z'
loop_
 _atom_site_type_symbol
 _atom_site_label
 _atom_site_symmetry_multiplicity
 _atom_site_fract_x
 _atom_site_fract_y
 _atom_site_fract_z
 _atom_site_occupancy
  Li  Li0  1  -0.003457  0.891767  0.639580  1
  Li  Li1  1  1.003457  0.108233  0.360420  1
  Li  Li2  1  0.731284  0.240633  0.959688  1
  Li  Li3  1  0.653018  0.689305  0.698542  1
  Li  Li4  1  0.346981  0.310694  0.301457  1
  Li  Li5  1  0.268716  0.759367  0.040312  1
  O  O6  1  0.266763  0.916399  0.562302  1
  O  O7  1  0.679953  0.162886  0.711930  1
  O  O8  1  0.881532  0.041861  0.675485  1
  O  O9  1  0.600574  0.829076  0.856794  1
  O  O10  1  0.749407  0.415864  0.405515  1
  O  O11  1  0.866722  0.721867  0.423109  1
  O  O12  1  0.663981  0.063873  0.101873  1
  O  O13  1  0.733237  0.083601  0.437698  1
  O  O14  1  0.977217  0.530750  0.725764  1
  O  O15  1  0.118469  0.958140  0.324515  1
  O  O16  1  0.024724  0.690944  0.011399  1
  O  O17  1  0.022784  0.469250  0.274237  1
  O  O18  1  0.907652  0.783536  0.794525  1
  O  O19  1  0.336020  0.936127  0.898128  1
  O  O20  1  0.133278  0.278133  0.576891  1
  O  O21  1  0.250594  0.584136  0.594485  1
  O  O22  1  0.702539  0.520137  0.162413  1
  O  O23  1  0.320047  0.837114  0.288070  1
  O  O24  1  0.297461  0.479862  0.837586  1
  O  O25  1  0.176786  0.111443  0.899694  1
  O  O26  1  0.265597  0.483564  0.164152  1
  O  O27  1  0.975276  0.309057  0.988601  1
  O  O28  1  0.578454  0.861193  0.556919  1
  O  O29  1  0.444172  0.451939  0.622989  1
  O  O30  1  0.470682  0.247921  0.901747  1
  O  O31  1  0.529319  0.752080  0.098253  1
  O  O32  1  0.555828  0.548061  0.377011  1
  O  O33  1  0.421545  0.138807  0.443081  1
  O  O34  1  0.399426  0.170924  0.143206  1
  O  O35  1  0.734402  0.516435  0.835848  1
  O  O36  1  0.823213  0.888557  0.100306  1
  O  O37  1  0.092347  0.216464  0.205475  1
  P  P38  1  0.279752  0.959342  0.407456  1
  P  P39  1  0.088158  0.373710  0.160039  1
  P  P40  1  0.284950  0.449687  0.655142  1
  P  P41  1  0.347530  0.115564  0.959129  1
  P  P42  1  0.652469  0.884435  0.040870  1
  P  P43  1  0.715049  0.550312  0.344858  1
  P  P44  1  0.911842  0.626290  0.839961  1
  P  P45  1  0.720247  0.040659  0.592544  1
  Cr  Cr46  1  0.936988  0.721603  0.210226  1
  Cr  Cr47  1  0.570918  0.127041  0.284847  1
  Cr  Cr48  1  0.563607  0.306641  0.661540  1
  Cr  Cr49  1  0.500000  0.499999  1.000000  1
  Cr  Cr50  1  0.436393  0.693359  0.338460  1
  Cr  Cr51  1  0.000000  0.000000  0.000000  1
  Cr  Cr52  1  0.429082  0.872960  0.715154  1
  Cr  Cr53  1  0.063012  0.278395  0.789773  1
  Cr  Cr54  1  1.000000  0.500000  0.500000  1
