# generated using pymatgen
data_LiFeP2O7
_symmetry_space_group_name_H-M   'P 1'
_cell_length_a   8.45541100
_cell_length_b   5.06014173
_cell_length_c   12.23864765
_cell_angle_alpha   90.00000000
_cell_angle_beta   78.48867620
_cell_angle_gamma   90.00000000
_symmetry_Int_Tables_number   1
_chemical_formula_structural   LiFeP2O7
_chemical_formula_sum   'Li4 Fe4 P8 O28'
_cell_volume   513.10479159
_cell_formula_units_Z   4
loop_
 _symmetry_equiv_pos_site_id
 _symmetry_equiv_pos_as_xyz
  1  'x, y, z'
loop_
 _atom_site_type_symbol
 _atom_site_label
 _atom_site_symmetry_multiplicity
 _atom_site_fract_x
 _atom_site_fract_y
 _atom_site_fract_z
 _atom_site_occupancy
  Li  Li0  1  0.120977  0.273428  0.295610  1
  Li  Li1  1  0.879023  0.726573  0.704389  1
  Li  Li2  1  0.620977  0.226573  0.795610  1
  Li  Li3  1  0.379022  0.773426  0.204390  1
  O  O4  1  0.410323  0.159055  0.117102  1
  O  O5  1  0.910322  0.340946  0.617102  1
  O  O6  1  0.835512  0.452971  0.857730  1
  O  O7  1  0.904728  0.965968  0.841139  1
  O  O8  1  0.095272  0.034032  0.158861  1
  O  O9  1  0.164488  0.547029  0.142270  1
  O  O10  1  0.089678  0.659055  0.382898  1
  O  O11  1  0.094138  0.934348  0.591883  1
  O  O12  1  0.105473  0.290519  0.741670  1
  O  O13  1  0.214507  0.389454  0.543484  1
  O  O14  1  0.063324  0.280031  0.947265  1
  O  O15  1  0.605473  0.209481  0.241670  1
  O  O16  1  0.335511  0.047029  0.357730  1
  O  O17  1  0.404728  0.534033  0.341139  1
  O  O18  1  0.436676  0.780031  0.552736  1
  O  O19  1  0.894527  0.709482  0.258329  1
  O  O20  1  0.285493  0.889454  0.956517  1
  O  O21  1  0.394527  0.790519  0.758330  1
  O  O22  1  0.905862  0.065653  0.408117  1
  O  O23  1  0.714506  0.110547  0.043483  1
  O  O24  1  0.405861  0.434348  0.908117  1
  O  O25  1  0.563325  0.219970  0.447264  1
  O  O26  1  0.595272  0.465968  0.658861  1
  O  O27  1  0.664489  0.952970  0.642270  1
  O  O28  1  0.589678  0.840946  0.882898  1
  O  O29  1  0.936675  0.719970  0.052736  1
  O  O30  1  0.785494  0.610547  0.456516  1
  O  O31  1  0.594139  0.565651  0.091883  1
  P  P32  1  0.581165  0.266566  0.115753  1
  P  P33  1  0.418835  0.733434  0.884247  1
  P  P34  1  0.528483  0.744507  0.645158  1
  P  P35  1  0.918835  0.766567  0.384246  1
  P  P36  1  0.028482  0.755494  0.145158  1
  P  P37  1  0.081165  0.233434  0.615753  1
  P  P38  1  0.471517  0.255494  0.354842  1
  P  P39  1  0.971518  0.244507  0.854842  1
  Fe  Fe40  1  0.763479  0.761053  0.971509  1
  Fe  Fe41  1  0.736522  0.261054  0.528491  1
  Fe  Fe42  1  0.263479  0.738946  0.471509  1
  Fe  Fe43  1  0.236521  0.238946  0.028491  1
