# generated using pymatgen
data_NiO2
_symmetry_space_group_name_H-M   'P 1'
_cell_length_a   4.55151434
_cell_length_b   4.98347093
_cell_length_c   4.55151411
_cell_angle_alpha   102.42370810
_cell_angle_beta   66.54187901
_cell_angle_gamma   77.57628111
_symmetry_Int_Tables_number   1
_chemical_formula_structural   NiO2
_chemical_formula_sum   'Ni2 O4'
_cell_volume   87.12007750
_cell_formula_units_Z   2
loop_
 _symmetry_equiv_pos_site_id
 _symmetry_equiv_pos_as_xyz
  1  'x, y, z'
loop_
 _atom_site_type_symbol
 _atom_site_label
 _atom_site_symmetry_multiplicity
 _atom_site_fract_x
 _atom_site_fract_y
 _atom_site_fract_z
 _atom_site_occupancy
  Ni  Ni0  1  0.248456  0.251588  0.751544  1
  Ni  Ni1  1  0.748484  0.751556  0.251516  1
  O  O2  1  0.151954  0.499211  0.150419  1
  O  O3  1  0.651914  0.999217  0.650389  1
  O  O4  1  0.349611  0.999217  0.348086  1
  O  O5  1  0.849581  0.499211  0.848046  1
