# generated using pymatgen
data_Mo3(PO4)4
_symmetry_space_group_name_H-M   'P 1'
_cell_length_a   7.85129944
_cell_length_b   8.02547241
_cell_length_c   10.48416788
_cell_angle_alpha   90.00000000
_cell_angle_beta   94.45414049
_cell_angle_gamma   90.00000000
_symmetry_Int_Tables_number   1
_chemical_formula_structural   Mo3(PO4)4
_chemical_formula_sum   'Mo6 P8 O32'
_cell_volume   658.61630504
_cell_formula_units_Z   2
loop_
 _symmetry_equiv_pos_site_id
 _symmetry_equiv_pos_as_xyz
  1  'x, y, z'
loop_
 _atom_site_type_symbol
 _atom_site_label
 _atom_site_symmetry_multiplicity
 _atom_site_fract_x
 _atom_site_fract_y
 _atom_site_fract_z
 _atom_site_occupancy
  O  O0  1  0.570257  0.366806  0.146943  1
  O  O1  1  0.929743  0.866806  0.103057  1
  O  O2  1  0.909658  0.862451  0.596848  1
  O  O3  1  0.903625  0.822706  0.364387  1
  O  O4  1  0.843044  0.440981  0.291482  1
  O  O5  1  0.924062  0.801858  0.875365  1
  O  O6  1  0.068336  0.139809  0.904581  1
  O  O7  1  0.060062  0.141355  0.418426  1
  O  O8  1  0.106843  0.202251  0.655445  1
  O  O9  1  0.158704  0.573645  0.709424  1
  O  O10  1  0.088547  0.192680  0.140841  1
  O  O11  1  0.149195  0.560165  0.206110  1
  O  O12  1  0.232822  0.874286  0.752361  1
  O  O13  1  0.250435  0.361785  0.971000  1
  O  O14  1  0.249565  0.861785  0.279001  1
  O  O15  1  0.267178  0.374287  0.497638  1
  O  O16  1  0.341297  0.073645  0.540575  1
  O  O17  1  0.393158  0.702250  0.594555  1
  O  O18  1  0.350805  0.060165  0.043889  1
  O  O19  1  0.742500  0.633081  0.013144  1
  O  O20  1  0.439937  0.641354  0.831574  1
  O  O21  1  0.431664  0.639809  0.345419  1
  O  O22  1  0.590342  0.362450  0.653152  1
  O  O23  1  0.862888  0.421547  0.788986  1
  O  O24  1  0.596375  0.322707  0.885614  1
  O  O25  1  0.656956  0.940981  0.958517  1
  O  O26  1  0.575939  0.301859  0.374634  1
  O  O27  1  0.637113  0.921546  0.461014  1
  O  O28  1  0.736699  0.623206  0.505484  1
  O  O29  1  0.763300  0.123205  0.744515  1
  O  O30  1  0.757501  0.133081  0.236856  1
  O  O31  1  0.411453  0.692679  0.109159  1
  P  P32  1  0.204179  0.172290  0.029256  1
  P  P33  1  0.304580  0.701992  0.730196  1
  P  P34  1  0.295820  0.672290  0.220744  1
  P  P35  1  0.701856  0.299145  0.770535  1
  P  P36  1  0.708158  0.317743  0.259661  1
  P  P37  1  0.791841  0.817743  0.990340  1
  P  P38  1  0.195421  0.201991  0.519805  1
  P  P39  1  0.798143  0.799144  0.479464  1
  Mo  Mo40  1  0.986415  0.010313  0.250164  1
  Mo  Mo41  1  0.983703  0.972998  0.760516  1
  Mo  Mo42  1  0.513584  0.510314  0.999836  1
  Mo  Mo43  1  0.516298  0.472999  0.489484  1
  Mo  Mo44  1  0.397403  0.865965  0.445784  1
  Mo  Mo45  1  0.102598  0.365965  0.804216  1
