# generated using pymatgen
data_Li4Mn5(P3O11)2
_symmetry_space_group_name_H-M   'P 1'
_cell_length_a   12.79008763
_cell_length_b   6.69011704
_cell_length_c   10.99920809
_cell_angle_alpha   90.00000000
_cell_angle_beta   103.24880031
_cell_angle_gamma   90.00000000
_symmetry_Int_Tables_number   1
_chemical_formula_structural   Li4Mn5(P3O11)2
_chemical_formula_sum   'Li8 Mn10 P12 O44'
_cell_volume   916.12109409
_cell_formula_units_Z   2
loop_
 _symmetry_equiv_pos_site_id
 _symmetry_equiv_pos_as_xyz
  1  'x, y, z'
loop_
 _atom_site_type_symbol
 _atom_site_label
 _atom_site_symmetry_multiplicity
 _atom_site_fract_x
 _atom_site_fract_y
 _atom_site_fract_z
 _atom_site_occupancy
  Li  Li0  1  0.185671  0.154230  0.568160  1
  Li  Li1  1  0.185671  0.345770  0.068160  1
  Li  Li2  1  0.334841  0.527119  0.886683  1
  Li  Li3  1  0.334841  0.972881  0.386683  1
  Li  Li4  1  0.665159  0.027119  0.613317  1
  Li  Li5  1  0.665159  0.472881  0.113317  1
  Li  Li6  1  0.814329  0.654230  0.931840  1
  Li  Li7  1  0.814329  0.845770  0.431840  1
  Mn  Mn8  1  0.000000  0.500000  0.500000  1
  Mn  Mn9  1  0.131904  0.755217  0.781562  1
  Mn  Mn10  1  0.000000  0.000000  0.000000  1
  Mn  Mn11  1  0.131904  0.744783  0.281562  1
  Mn  Mn12  1  0.346684  0.993443  0.802128  1
  Mn  Mn13  1  0.346684  0.506557  0.302128  1
  Mn  Mn14  1  0.653316  0.493443  0.697872  1
  Mn  Mn15  1  0.653316  0.006557  0.197872  1
  Mn  Mn16  1  0.868096  0.255217  0.718438  1
  Mn  Mn17  1  0.868096  0.244783  0.218438  1
  O  O18  1  0.017791  0.225991  0.867867  1
  O  O19  1  0.013499  0.297633  0.650638  1
  O  O20  1  0.017791  0.274009  0.367867  1
  O  O21  1  0.013499  0.202367  0.150638  1
  O  O22  1  0.168459  0.442985  0.829195  1
  O  O23  1  0.166068  0.081544  0.758099  1
  O  O24  1  0.180215  0.447875  0.547587  1
  O  O25  1  0.272140  0.785052  0.945919  1
  O  O26  1  0.168459  0.057015  0.329195  1
  O  O27  1  0.166068  0.418456  0.258099  1
  O  O28  1  0.257664  0.750835  0.674406  1
  O  O29  1  0.180215  0.052125  0.047587  1
  O  O30  1  0.272140  0.714948  0.445919  1
  O  O31  1  0.390974  0.234921  0.932656  1
  O  O32  1  0.257664  0.749165  0.174406  1
  O  O33  1  0.348371  0.123879  0.626311  1
  O  O34  1  0.383095  0.498317  0.617151  1
  O  O35  1  0.462897  0.762679  0.862544  1
  O  O36  1  0.390974  0.265079  0.432656  1
  O  O37  1  0.348371  0.376121  0.126311  1
  O  O38  1  0.383095  0.001683  0.117151  1
  O  O39  1  0.462897  0.737321  0.362544  1
  O  O40  1  0.537103  0.262679  0.637456  1
  O  O41  1  0.616905  0.998317  0.882849  1
  O  O42  1  0.651629  0.623879  0.873689  1
  O  O43  1  0.609026  0.734921  0.567344  1
  O  O44  1  0.537103  0.237321  0.137456  1
  O  O45  1  0.616905  0.501683  0.382849  1
  O  O46  1  0.651629  0.876121  0.373689  1
  O  O47  1  0.742336  0.250835  0.825594  1
  O  O48  1  0.609026  0.765079  0.067344  1
  O  O49  1  0.727860  0.285052  0.554081  1
  O  O50  1  0.819785  0.947875  0.952413  1
  O  O51  1  0.742336  0.249165  0.325594  1
  O  O52  1  0.833932  0.581544  0.741901  1
  O  O53  1  0.831541  0.942985  0.670805  1
  O  O54  1  0.727860  0.214948  0.054081  1
  O  O55  1  0.819785  0.552125  0.452413  1
  O  O56  1  0.833932  0.918456  0.241901  1
  O  O57  1  0.831541  0.557015  0.170805  1
  O  O58  1  0.986501  0.797633  0.849362  1
  O  O59  1  0.982209  0.725991  0.632133  1
  O  O60  1  0.986501  0.702367  0.349362  1
  O  O61  1  0.982209  0.774009  0.132133  1
  P  P62  1  0.095115  0.263207  0.778935  1
  P  P63  1  0.095115  0.236793  0.278935  1
  P  P64  1  0.267326  0.607358  0.568636  1
  P  P65  1  0.267326  0.892642  0.068636  1
  P  P66  1  0.418034  0.276636  0.576434  1
  P  P67  1  0.418034  0.223364  0.076434  1
  P  P68  1  0.581966  0.776636  0.923566  1
  P  P69  1  0.581966  0.723364  0.423566  1
  P  P70  1  0.732674  0.107358  0.931364  1
  P  P71  1  0.732674  0.392642  0.431364  1
  P  P72  1  0.904885  0.763207  0.721065  1
  P  P73  1  0.904885  0.736793  0.221065  1
