# generated using pymatgen
data_LiV(PO3)3
_symmetry_space_group_name_H-M   'P 1'
_cell_length_a   8.53478210
_cell_length_b   8.74640121
_cell_length_c   8.83371295
_cell_angle_alpha   90.00000000
_cell_angle_beta   90.00000000
_cell_angle_gamma   90.00000000
_symmetry_Int_Tables_number   1
_chemical_formula_structural   LiV(PO3)3
_chemical_formula_sum   'Li4 V4 P12 O36'
_cell_volume   659.42455616
_cell_formula_units_Z   4
loop_
 _symmetry_equiv_pos_site_id
 _symmetry_equiv_pos_as_xyz
  1  'x, y, z'
loop_
 _atom_site_type_symbol
 _atom_site_label
 _atom_site_symmetry_multiplicity
 _atom_site_fract_x
 _atom_site_fract_y
 _atom_site_fract_z
 _atom_site_occupancy
  Li  Li0  1  0.151608  0.865392  0.384500  1
  Li  Li1  1  0.348392  0.134608  0.884501  1
  Li  Li2  1  0.651608  0.634608  0.615499  1
  Li  Li3  1  0.848392  0.365391  0.115499  1
  O  O4  1  0.395871  0.873841  0.417240  1
  O  O5  1  0.091334  0.390761  0.134168  1
  O  O6  1  0.104129  0.126158  0.917240  1
  O  O7  1  0.125740  0.615358  0.319720  1
  O  O8  1  0.128904  0.805797  0.621626  1
  O  O9  1  0.137659  0.537174  0.734575  1
  O  O10  1  0.160031  0.140397  0.406674  1
  O  O11  1  0.190817  0.904354  0.157363  1
  O  O12  1  0.228748  0.635548  0.050556  1
  O  O13  1  0.271252  0.364453  0.550556  1
  O  O14  1  0.309183  0.095645  0.657362  1
  O  O15  1  0.339969  0.859603  0.906674  1
  O  O16  1  0.362341  0.462826  0.234575  1
  O  O17  1  0.371096  0.194202  0.121626  1
  O  O18  1  0.374260  0.384643  0.819719  1
  O  O19  1  0.040151  0.225302  0.654680  1
  O  O20  1  0.408666  0.609240  0.634168  1
  O  O21  1  0.459849  0.774698  0.154680  1
  O  O22  1  0.540151  0.274697  0.345319  1
  O  O23  1  0.591334  0.109239  0.865832  1
  O  O24  1  0.604129  0.373841  0.082760  1
  O  O25  1  0.625740  0.884643  0.680281  1
  O  O26  1  0.628904  0.694202  0.378374  1
  O  O27  1  0.637659  0.962827  0.265426  1
  O  O28  1  0.959849  0.725302  0.845320  1
  O  O29  1  0.690817  0.595645  0.842638  1
  O  O30  1  0.728748  0.864453  0.949444  1
  O  O31  1  0.771252  0.135547  0.449445  1
  O  O32  1  0.809183  0.404354  0.342638  1
  O  O33  1  0.839969  0.640397  0.093327  1
  O  O34  1  0.862341  0.037174  0.765425  1
  O  O35  1  0.871096  0.305798  0.878375  1
  O  O36  1  0.874260  0.115358  0.180280  1
  O  O37  1  0.895871  0.626159  0.582760  1
  O  O38  1  0.908666  0.890761  0.365832  1
  O  O39  1  0.660031  0.359604  0.593326  1
  P  P40  1  0.027954  0.678663  0.682439  1
  P  P41  1  0.189534  0.521673  0.190311  1
  P  P42  1  0.201518  0.192685  0.562606  1
  P  P43  1  0.298483  0.807314  0.062607  1
  P  P44  1  0.310466  0.478327  0.690312  1
  P  P45  1  0.472046  0.321338  0.182439  1
  P  P46  1  0.527954  0.821337  0.317561  1
  P  P47  1  0.689534  0.978327  0.809688  1
  P  P48  1  0.972046  0.178662  0.817560  1
  P  P49  1  0.798483  0.692685  0.937394  1
  P  P50  1  0.810466  0.021674  0.309689  1
  P  P51  1  0.701518  0.307314  0.437393  1
  V  V52  1  0.129111  0.144858  0.160355  1
  V  V53  1  0.370889  0.855143  0.660355  1
  V  V54  1  0.629111  0.355143  0.839645  1
  V  V55  1  0.870889  0.644857  0.339645  1
