# generated using pymatgen
data_V2O5
_symmetry_space_group_name_H-M   'P 1'
_cell_length_a   3.59405539
_cell_length_b   5.46316434
_cell_length_c   11.60781537
_cell_angle_alpha   90.00000000
_cell_angle_beta   90.00000000
_cell_angle_gamma   109.20416093
_symmetry_Int_Tables_number   1
_chemical_formula_structural   V2O5
_chemical_formula_sum   'V4 O10'
_cell_volume   215.23537439
_cell_formula_units_Z   2
loop_
 _symmetry_equiv_pos_site_id
 _symmetry_equiv_pos_as_xyz
  1  'x, y, z'
loop_
 _atom_site_type_symbol
 _atom_site_label
 _atom_site_symmetry_multiplicity
 _atom_site_fract_x
 _atom_site_fract_y
 _atom_site_fract_z
 _atom_site_occupancy
  V  V0  1  0.207883  0.415766  0.604992  1
  V  V1  1  0.792118  0.584235  0.395007  1
  V  V2  1  0.792118  0.584235  0.104993  1
  V  V3  1  0.207883  0.415766  0.895008  1
  O  O4  1  0.726911  0.453821  0.250000  1
  O  O5  1  0.273090  0.546180  0.750000  1
  O  O6  1  0.246070  0.492138  0.068141  1
  O  O7  1  0.753932  0.507863  0.931859  1
  O  O8  1  0.753932  0.507863  0.568141  1
  O  O9  1  0.246070  0.492138  0.431858  1
  O  O10  1  0.053774  0.107548  0.622242  1
  O  O11  1  0.946226  0.892451  0.377758  1
  O  O12  1  0.053774  0.107548  0.877758  1
  O  O13  1  0.946226  0.892451  0.122243  1
