# generated using pymatgen
data_Co(WO4)2
_symmetry_space_group_name_H-M   'P 1'
_cell_length_a   5.02533986
_cell_length_b   5.37845668
_cell_length_c   5.69200704
_cell_angle_alpha   71.38664653
_cell_angle_beta   88.48768246
_cell_angle_gamma   117.46088032
_symmetry_Int_Tables_number   1
_chemical_formula_structural   Co(WO4)2
_chemical_formula_sum   'Co1 W2 O8'
_cell_volume   126.58570775
_cell_formula_units_Z   1
loop_
 _symmetry_equiv_pos_site_id
 _symmetry_equiv_pos_as_xyz
  1  'x, y, z'
loop_
 _atom_site_type_symbol
 _atom_site_label
 _atom_site_symmetry_multiplicity
 _atom_site_fract_x
 _atom_site_fract_y
 _atom_site_fract_z
 _atom_site_occupancy
  O  O0  1  0.685554  0.736357  0.530313  1
  O  O1  1  0.190891  0.717435  0.315412  1
  O  O2  1  0.266247  0.757821  0.831316  1
  O  O3  1  0.291271  0.218456  0.946004  1
  O  O4  1  0.314446  0.263643  0.469687  1
  O  O5  1  0.733753  0.242179  0.168684  1
  O  O6  1  0.708729  0.781544  0.053996  1
  O  O7  1  0.809109  0.282565  0.684588  1
  Co  Co8  1  0.500000  0.000000  0.000000  1
  W  W9  1  0.268356  0.504117  0.675755  1
  W  W10  1  0.731644  0.495883  0.324245  1
