# generated using pymatgen
data_Fe(SiO3)2
_symmetry_space_group_name_H-M   'P 1'
_cell_length_a   6.55103420
_cell_length_b   8.76799709
_cell_length_c   5.37322904
_cell_angle_alpha   90.02925589
_cell_angle_beta   75.72115664
_cell_angle_gamma   48.00337479
_symmetry_Int_Tables_number   1
_chemical_formula_structural   Fe(SiO3)2
_chemical_formula_sum   'Fe2 Si4 O12'
_cell_volume   216.33599640
_cell_formula_units_Z   2
loop_
 _symmetry_equiv_pos_site_id
 _symmetry_equiv_pos_as_xyz
  1  'x, y, z'
loop_
 _atom_site_type_symbol
 _atom_site_label
 _atom_site_symmetry_multiplicity
 _atom_site_fract_x
 _atom_site_fract_y
 _atom_site_fract_z
 _atom_site_occupancy
  Fe  Fe0  1  0.499261  0.900965  0.246325  1
  Fe  Fe1  1  0.499021  0.099702  0.746525  1
  Si  Si2  1  0.092824  0.788785  0.250861  1
  Si  Si3  1  0.905161  0.211387  0.741255  1
  Si  Si4  1  0.905353  0.382585  0.241732  1
  Si  Si5  1  0.092597  0.617552  0.750864  1
  O  O6  1  0.784325  0.360284  0.530187  1
  O  O7  1  0.210129  0.904254  0.215321  1
  O  O8  1  0.266657  0.190165  0.134106  1
  O  O9  1  0.212431  0.639387  0.461495  1
  O  O10  1  0.789247  0.095282  0.777298  1
  O  O11  1  0.731246  0.810851  0.859224  1
  O  O12  1  0.788205  0.615316  0.277829  1
  O  O13  1  0.731527  0.957724  0.358915  1
  O  O14  1  0.785806  0.353006  0.030660  1
  O  O15  1  0.213121  0.646049  0.962084  1
  O  O16  1  0.266443  0.043763  0.632866  1
  O  O17  1  0.208890  0.385456  0.715919  1
