# generated using pymatgen
data_Li3Cr3(PO4)4
_symmetry_space_group_name_H-M   'P 1'
_cell_length_a   7.59942534
_cell_length_b   8.00715770
_cell_length_c   10.16606879
_cell_angle_alpha   90.00000000
_cell_angle_beta   93.64530320
_cell_angle_gamma   90.00000000
_symmetry_Int_Tables_number   1
_chemical_formula_structural   Li3Cr3(PO4)4
_chemical_formula_sum   'Li6 Cr6 P8 O32'
_cell_volume   617.35164622
_cell_formula_units_Z   2
loop_
 _symmetry_equiv_pos_site_id
 _symmetry_equiv_pos_as_xyz
  1  'x, y, z'
loop_
 _atom_site_type_symbol
 _atom_site_label
 _atom_site_symmetry_multiplicity
 _atom_site_fract_x
 _atom_site_fract_y
 _atom_site_fract_z
 _atom_site_occupancy
  Li  Li0  1  0.105303  0.359883  0.798619  1
  Li  Li1  1  0.911089  0.631875  0.203365  1
  Li  Li2  1  0.588910  0.131875  0.546636  1
  Li  Li3  1  0.400863  0.864394  0.450757  1
  Li  Li4  1  0.394698  0.859883  0.951382  1
  Li  Li5  1  0.099137  0.364394  0.299242  1
  O  O6  1  0.239083  0.877637  0.770433  1
  O  O7  1  0.891522  0.801614  0.846317  1
  O  O8  1  0.850501  0.430846  0.282430  1
  O  O9  1  0.899577  0.801847  0.348612  1
  O  O10  1  0.940948  0.850557  0.596180  1
  O  O11  1  0.948617  0.855114  0.089539  1
  O  O12  1  0.060415  0.144225  0.910458  1
  O  O13  1  0.053253  0.137484  0.408086  1
  O  O14  1  0.103185  0.198551  0.650842  1
  O  O15  1  0.136661  0.580029  0.730620  1
  O  O16  1  0.120134  0.190125  0.153671  1
  O  O17  1  0.151364  0.567663  0.219844  1
  O  O18  1  0.396815  0.698552  0.099158  1
  O  O19  1  0.260917  0.377637  0.979568  1
  O  O20  1  0.253634  0.370101  0.479064  1
  O  O21  1  0.246366  0.870101  0.270936  1
  O  O22  1  0.757904  0.130519  0.222641  1
  O  O23  1  0.379866  0.690125  0.596329  1
  O  O24  1  0.363339  0.080029  0.019380  1
  O  O25  1  0.439585  0.644225  0.839543  1
  O  O26  1  0.846455  0.430394  0.778868  1
  O  O27  1  0.446747  0.637484  0.341913  1
  O  O28  1  0.551383  0.355114  0.660461  1
  O  O29  1  0.608478  0.301614  0.903683  1
  O  O30  1  0.559052  0.350557  0.153820  1
  O  O31  1  0.653546  0.930394  0.971132  1
  O  O32  1  0.600422  0.301847  0.401389  1
  O  O33  1  0.649499  0.930846  0.467570  1
  O  O34  1  0.742095  0.630519  0.527359  1
  O  O35  1  0.763505  0.127679  0.731651  1
  O  O36  1  0.736495  0.627679  0.018349  1
  O  O37  1  0.348636  0.067663  0.530156  1
  P  P38  1  0.201180  0.199997  0.018663  1
  P  P39  1  0.298820  0.699997  0.731336  1
  P  P40  1  0.302710  0.688412  0.232294  1
  P  P41  1  0.694383  0.302403  0.765202  1
  P  P42  1  0.699617  0.312153  0.275271  1
  P  P43  1  0.805618  0.802403  0.984798  1
  P  P44  1  0.197290  0.188412  0.517706  1
  P  P45  1  0.800383  0.812153  0.474729  1
  Cr  Cr46  1  0.892787  0.642564  0.696281  1
  Cr  Cr47  1  0.607213  0.142564  0.053719  1
  Cr  Cr48  1  0.493035  0.510033  0.000772  1
  Cr  Cr49  1  0.483521  0.493904  0.498812  1
  Cr  Cr50  1  0.016479  0.993904  0.251188  1
  Cr  Cr51  1  0.006965  0.010033  0.749229  1
