# generated using pymatgen
data_CrP2O7
_symmetry_space_group_name_H-M   'P 1'
_cell_length_a   6.84570633
_cell_length_b   8.07370532
_cell_length_c   9.35024957
_cell_angle_alpha   90.00000000
_cell_angle_beta   108.37152221
_cell_angle_gamma   90.00000000
_symmetry_Int_Tables_number   1
_chemical_formula_structural   CrP2O7
_chemical_formula_sum   'Cr4 P8 O28'
_cell_volume   490.45094512
_cell_formula_units_Z   4
loop_
 _symmetry_equiv_pos_site_id
 _symmetry_equiv_pos_as_xyz
  1  'x, y, z'
loop_
 _atom_site_type_symbol
 _atom_site_label
 _atom_site_symmetry_multiplicity
 _atom_site_fract_x
 _atom_site_fract_y
 _atom_site_fract_z
 _atom_site_occupancy
  Cr  Cr0  1  0.279669  0.228210  0.995344  1
  Cr  Cr1  1  0.279669  0.271790  0.495344  1
  Cr  Cr2  1  0.720342  0.728107  0.504625  1
  Cr  Cr3  1  0.720342  0.771893  0.004625  1
  P  P4  1  0.068313  0.469110  0.706648  1
  P  P5  1  0.068313  0.030890  0.206648  1
  P  P6  1  0.931751  0.969210  0.793378  1
  P  P7  1  0.931751  0.530790  0.293378  1
  P  P8  1  0.467488  0.587284  0.705189  1
  P  P9  1  0.532490  0.087393  0.794780  1
  P  P10  1  0.467488  0.912716  0.205189  1
  P  P11  1  0.532490  0.412607  0.294780  1
  O  O12  1  0.112245  0.398320  0.864136  1
  O  O13  1  0.112245  0.101680  0.364136  1
  O  O14  1  0.887740  0.898335  0.635871  1
  O  O15  1  0.887740  0.601665  0.135871  1
  O  O16  1  0.139473  0.054894  0.844003  1
  O  O17  1  0.139473  0.445106  0.344003  1
  O  O18  1  0.860534  0.554847  0.656007  1
  O  O19  1  0.860534  0.945153  0.156007  1
  O  O20  1  0.085723  0.333627  0.593160  1
  O  O21  1  0.085723  0.166373  0.093160  1
  O  O22  1  0.914303  0.833664  0.906867  1
  O  O23  1  0.914303  0.666336  0.406867  1
  O  O24  1  0.235047  0.613527  0.707443  1
  O  O25  1  0.235047  0.886473  0.207443  1
  O  O26  1  0.764947  0.113593  0.792561  1
  O  O27  1  0.764947  0.386407  0.292561  1
  O  O28  1  0.482789  0.226639  0.889998  1
  O  O29  1  0.517190  0.726602  0.609997  1
  O  O30  1  0.482789  0.273361  0.389998  1
  O  O31  1  0.517190  0.773398  0.109997  1
  O  O32  1  0.394463  0.094570  0.628379  1
  O  O33  1  0.605520  0.594569  0.871626  1
  O  O34  1  0.394463  0.405430  0.128379  1
  O  O35  1  0.605520  0.905431  0.371626  1
  O  O36  1  0.524437  0.917157  0.861581  1
  O  O37  1  0.475535  0.417113  0.638407  1
  O  O38  1  0.524437  0.582843  0.361581  1
  O  O39  1  0.475535  0.082887  0.138407  1
