# generated using pymatgen
data_MoP2O7
_symmetry_space_group_name_H-M   'P 1'
_cell_length_a   4.98972690
_cell_length_b   8.45887775
_cell_length_c   7.11275217
_cell_angle_alpha   90.00000000
_cell_angle_beta   106.71297950
_cell_angle_gamma   90.00000000
_symmetry_Int_Tables_number   1
_chemical_formula_structural   MoP2O7
_chemical_formula_sum   'Mo2 P4 O14'
_cell_volume   287.52969599
_cell_formula_units_Z   2
loop_
 _symmetry_equiv_pos_site_id
 _symmetry_equiv_pos_as_xyz
  1  'x, y, z'
loop_
 _atom_site_type_symbol
 _atom_site_label
 _atom_site_symmetry_multiplicity
 _atom_site_fract_x
 _atom_site_fract_y
 _atom_site_fract_z
 _atom_site_occupancy
  O  O0  1  0.431215  0.854834  0.087670  1
  O  O1  1  0.995676  0.772368  0.177634  1
  O  O2  1  0.004325  0.272368  0.822366  1
  O  O3  1  0.140551  0.616170  0.922969  1
  O  O4  1  0.153191  0.010012  0.470105  1
  O  O5  1  0.281715  0.302599  0.505951  1
  O  O6  1  0.430148  0.617151  0.630900  1
  O  O7  1  0.568787  0.354833  0.912331  1
  O  O8  1  0.846810  0.510012  0.529896  1
  O  O9  1  0.422049  0.594643  0.271587  1
  O  O10  1  0.859450  0.116169  0.077031  1
  O  O11  1  0.569853  0.117150  0.369101  1
  O  O12  1  0.718286  0.802599  0.494050  1
  O  O13  1  0.577952  0.094644  0.728412  1
  P  P14  1  0.239905  0.714830  0.106142  1
  P  P15  1  0.760096  0.214831  0.893858  1
  P  P16  1  0.386869  0.133766  0.509152  1
  P  P17  1  0.613132  0.633766  0.490849  1
  Mo  Mo18  1  0.785362  0.947581  0.274080  1
  Mo  Mo19  1  0.214639  0.447582  0.725920  1
