# generated using pymatgen
data_Li2NiP2O7
_symmetry_space_group_name_H-M   'P 1'
_cell_length_a   8.07775995
_cell_length_b   13.34650731
_cell_length_c   5.04894766
_cell_angle_alpha   90.00000000
_cell_angle_beta   92.50510654
_cell_angle_gamma   90.00000000
_symmetry_Int_Tables_number   1
_chemical_formula_structural   Li2NiP2O7
_chemical_formula_sum   'Li8 Ni4 P8 O28'
_cell_volume   543.80625626
_cell_formula_units_Z   4
loop_
 _symmetry_equiv_pos_site_id
 _symmetry_equiv_pos_as_xyz
  1  'x, y, z'
loop_
 _atom_site_type_symbol
 _atom_site_label
 _atom_site_symmetry_multiplicity
 _atom_site_fract_x
 _atom_site_fract_y
 _atom_site_fract_z
 _atom_site_occupancy
  Li  Li0  1  0.133235  0.891965  0.169759  1
  Li  Li1  1  0.164858  0.300817  0.741623  1
  Li  Li2  1  0.335141  0.800817  0.758376  1
  Li  Li3  1  0.366764  0.391965  0.330241  1
  Li  Li4  1  0.633235  0.608035  0.669758  1
  Li  Li5  1  0.664859  0.199183  0.241623  1
  Li  Li6  1  0.835142  0.699183  0.258376  1
  Li  Li7  1  0.866765  0.108035  0.830241  1
  O  O8  1  0.179870  0.035286  0.398721  1
  O  O9  1  0.923570  0.438344  0.223610  1
  O  O10  1  0.869600  0.891672  0.140403  1
  O  O11  1  0.841099  0.268904  0.040273  1
  O  O12  1  0.049608  0.712102  0.477567  1
  O  O13  1  0.076431  0.561656  0.776391  1
  O  O14  1  0.130400  0.108328  0.859598  1
  O  O15  1  0.158901  0.731097  0.959727  1
  O  O16  1  0.144745  0.307346  0.141687  1
  O  O17  1  0.950391  0.287899  0.522434  1
  O  O18  1  0.220035  0.925631  0.816749  1
  O  O19  1  0.279965  0.425631  0.683250  1
  O  O20  1  0.320130  0.535286  0.101279  1
  O  O21  1  0.341099  0.231096  0.540274  1
  O  O22  1  0.355255  0.807346  0.358312  1
  O  O23  1  0.369601  0.608328  0.640403  1
  O  O24  1  0.855255  0.692654  0.858312  1
  O  O25  1  0.450392  0.212100  0.022434  1
  O  O26  1  0.549609  0.787899  0.977567  1
  O  O27  1  0.576430  0.938344  0.276391  1
  O  O28  1  0.630400  0.391672  0.359598  1
  O  O29  1  0.644745  0.192654  0.641687  1
  O  O30  1  0.658902  0.768903  0.459727  1
  O  O31  1  0.679870  0.464713  0.898722  1
  O  O32  1  0.720034  0.574369  0.316749  1
  O  O33  1  0.779965  0.074369  0.183250  1
  O  O34  1  0.820130  0.964714  0.601279  1
  O  O35  1  0.423569  0.061655  0.723610  1
  P  P36  1  0.966808  0.320755  0.232544  1
  P  P37  1  0.775036  0.970869  0.300906  1
  P  P38  1  0.724964  0.470870  0.199094  1
  P  P39  1  0.533193  0.820756  0.267455  1
  P  P40  1  0.033192  0.679244  0.767455  1
  P  P41  1  0.224964  0.029130  0.699095  1
  P  P42  1  0.466808  0.179245  0.732544  1
  P  P43  1  0.275035  0.529131  0.800904  1
  Ni  Ni44  1  0.240709  0.163009  0.205998  1
  Ni  Ni45  1  0.259291  0.663010  0.294003  1
  Ni  Ni46  1  0.740709  0.336990  0.705998  1
  Ni  Ni47  1  0.759291  0.836990  0.794001  1
