# generated using pymatgen
data_MnP2O7
_symmetry_space_group_name_H-M   'P 1'
_cell_length_a   4.78066137
_cell_length_b   6.91681682
_cell_length_c   7.87548871
_cell_angle_alpha   90.00000000
_cell_angle_beta   90.00000000
_cell_angle_gamma   106.35468045
_symmetry_Int_Tables_number   1
_chemical_formula_structural   MnP2O7
_chemical_formula_sum   'Mn2 P4 O14'
_cell_volume   249.88114945
_cell_formula_units_Z   2
loop_
 _symmetry_equiv_pos_site_id
 _symmetry_equiv_pos_as_xyz
  1  'x, y, z'
loop_
 _atom_site_type_symbol
 _atom_site_label
 _atom_site_symmetry_multiplicity
 _atom_site_fract_x
 _atom_site_fract_y
 _atom_site_fract_z
 _atom_site_occupancy
  O  O0  1  0.417355  0.091207  0.932820  1
  O  O1  1  0.952929  0.162116  0.822065  1
  O  O2  1  0.047072  0.837884  0.322066  1
  O  O3  1  0.129861  0.905819  0.675163  1
  O  O4  1  0.154348  0.463495  0.052727  1
  O  O5  1  0.277130  0.514528  0.370663  1
  O  O6  1  0.410710  0.630108  0.690449  1
  O  O7  1  0.582644  0.908793  0.432821  1
  O  O8  1  0.845651  0.536505  0.552727  1
  O  O9  1  0.417178  0.264396  0.643932  1
  O  O10  1  0.870138  0.094181  0.175163  1
  O  O11  1  0.589291  0.369892  0.190449  1
  O  O12  1  0.722870  0.485472  0.870664  1
  O  O13  1  0.582823  0.735604  0.143931  1
  P  P14  1  0.227961  0.101074  0.776034  1
  P  P15  1  0.772040  0.898926  0.276035  1
  P  P16  1  0.390254  0.509975  0.188398  1
  P  P17  1  0.609745  0.490025  0.688399  1
  Mn  Mn18  1  0.780764  0.271798  0.008471  1
  Mn  Mn19  1  0.219234  0.728202  0.508471  1
