# generated using pymatgen
data_LiCr4(PO4)3
_symmetry_space_group_name_H-M   'P 1'
_cell_length_a   6.29616323
_cell_length_b   14.63832757
_cell_length_c   10.35941815
_cell_angle_alpha   90.00000000
_cell_angle_beta   90.00000000
_cell_angle_gamma   90.00000000
_symmetry_Int_Tables_number   1
_chemical_formula_structural   LiCr4(PO4)3
_chemical_formula_sum   'Li4 Cr16 P12 O48'
_cell_volume   954.77887950
_cell_formula_units_Z   4
loop_
 _symmetry_equiv_pos_site_id
 _symmetry_equiv_pos_as_xyz
  1  'x, y, z'
loop_
 _atom_site_type_symbol
 _atom_site_label
 _atom_site_symmetry_multiplicity
 _atom_site_fract_x
 _atom_site_fract_y
 _atom_site_fract_z
 _atom_site_occupancy
  Li  Li0  1  0.066061  0.250000  0.728578  1
  Li  Li1  1  0.933939  0.750000  0.271422  1
  Li  Li2  1  0.566062  0.250000  0.771422  1
  Li  Li3  1  0.433938  0.750000  0.228579  1
  O  O4  1  0.088160  0.662114  0.653182  1
  O  O5  1  0.804752  0.353838  0.762781  1
  O  O6  1  0.804752  0.146162  0.762781  1
  O  O7  1  0.743679  0.750000  0.613061  1
  O  O8  1  0.756320  0.250000  0.113062  1
  O  O9  1  0.695248  0.853838  0.262781  1
  O  O10  1  0.695248  0.646161  0.262781  1
  O  O11  1  0.664853  0.452619  0.952588  1
  O  O12  1  0.970874  0.890049  0.037178  1
  O  O13  1  0.970874  0.609951  0.037178  1
  O  O14  1  0.953149  0.250000  0.552284  1
  O  O15  1  0.942910  0.988286  0.792850  1
  O  O16  1  0.835146  0.952619  0.452588  1
  O  O17  1  0.942910  0.511714  0.792850  1
  O  O18  1  0.911841  0.162114  0.346818  1
  O  O19  1  0.911841  0.337886  0.346818  1
  O  O20  1  0.029127  0.109951  0.962822  1
  O  O21  1  0.029127  0.390049  0.962822  1
  O  O22  1  0.046851  0.750000  0.447717  1
  O  O23  1  0.057090  0.011714  0.207150  1
  O  O24  1  0.057090  0.488286  0.207150  1
  O  O25  1  0.835146  0.547381  0.452588  1
  O  O26  1  0.088160  0.837886  0.653182  1
  O  O27  1  0.164854  0.047381  0.547412  1
  O  O28  1  0.164854  0.452619  0.547412  1
  O  O29  1  0.195249  0.646161  0.237219  1
  O  O30  1  0.195249  0.853838  0.237219  1
  O  O31  1  0.256321  0.250000  0.386939  1
  O  O32  1  0.243680  0.750000  0.886939  1
  O  O33  1  0.304751  0.146162  0.737219  1
  O  O34  1  0.304751  0.353838  0.737219  1
  O  O35  1  0.335147  0.547381  0.047412  1
  O  O36  1  0.335147  0.952619  0.047412  1
  O  O37  1  0.411841  0.162114  0.153182  1
  O  O38  1  0.411841  0.337886  0.153182  1
  O  O39  1  0.442910  0.511714  0.707151  1
  O  O40  1  0.442910  0.988286  0.707151  1
  O  O41  1  0.453148  0.250000  0.947716  1
  O  O42  1  0.470874  0.609951  0.462822  1
  O  O43  1  0.470874  0.890049  0.462822  1
  O  O44  1  0.529126  0.109951  0.537178  1
  O  O45  1  0.529126  0.390049  0.537178  1
  O  O46  1  0.664853  0.047381  0.952588  1
  O  O47  1  0.557089  0.011714  0.292850  1
  O  O48  1  0.557089  0.488286  0.292850  1
  O  O49  1  0.588159  0.662114  0.846818  1
  O  O50  1  0.588159  0.837886  0.846818  1
  O  O51  1  0.546851  0.750000  0.052283  1
  P  P52  1  0.993320  0.750000  0.591874  1
  P  P53  1  0.141870  0.572668  0.135848  1
  P  P54  1  0.141870  0.927333  0.135848  1
  P  P55  1  0.358131  0.072668  0.635848  1
  P  P56  1  0.358131  0.427333  0.635848  1
  P  P57  1  0.506679  0.250000  0.091874  1
  P  P58  1  0.493320  0.750000  0.908126  1
  P  P59  1  0.641870  0.572668  0.364152  1
  P  P60  1  0.641870  0.927333  0.364152  1
  P  P61  1  0.858130  0.072668  0.864153  1
  P  P62  1  0.858130  0.427333  0.864153  1
  P  P63  1  0.006680  0.250000  0.408126  1
  Cr  Cr64  1  0.928509  0.368504  0.153390  1
  Cr  Cr65  1  0.928509  0.131496  0.153390  1
  Cr  Cr66  1  0.849120  0.415485  0.562037  1
  Cr  Cr67  1  0.849120  0.084515  0.562037  1
  Cr  Cr68  1  0.650880  0.915484  0.062037  1
  Cr  Cr69  1  0.650880  0.584515  0.062037  1
  Cr  Cr70  1  0.571492  0.868504  0.653390  1
  Cr  Cr71  1  0.571492  0.631495  0.653390  1
  Cr  Cr72  1  0.428508  0.368504  0.346610  1
  Cr  Cr73  1  0.428508  0.131496  0.346610  1
  Cr  Cr74  1  0.349121  0.415485  0.937963  1
  Cr  Cr75  1  0.349121  0.084515  0.937963  1
  Cr  Cr76  1  0.150880  0.915484  0.437963  1
  Cr  Cr77  1  0.150880  0.584515  0.437963  1
  Cr  Cr78  1  0.071491  0.868504  0.846610  1
  Cr  Cr79  1  0.071491  0.631495  0.846610  1
