# generated using pymatgen
data_Li5Ni9(P2O7)8
_symmetry_space_group_name_H-M   'P 1'
_cell_length_a   10.77094948
_cell_length_b   9.67105427
_cell_length_c   12.60719042
_cell_angle_alpha   85.24111810
_cell_angle_beta   66.22540690
_cell_angle_gamma   109.91851735
_symmetry_Int_Tables_number   1
_chemical_formula_structural   Li5Ni9(P2O7)8
_chemical_formula_sum   'Li5 Ni9 P16 O56'
_cell_volume   1092.24016116
_cell_formula_units_Z   1
loop_
 _symmetry_equiv_pos_site_id
 _symmetry_equiv_pos_as_xyz
  1  'x, y, z'
loop_
 _atom_site_type_symbol
 _atom_site_label
 _atom_site_symmetry_multiplicity
 _atom_site_fract_x
 _atom_site_fract_y
 _atom_site_fract_z
 _atom_site_occupancy
  Li  Li0  1  1.001611  0.437949  0.599625  1
  Li  Li1  1  0.276311  0.615248  0.192896  1
  Li  Li2  1  0.968105  0.967562  0.007092  1
  Li  Li3  1  0.485299  0.050753  0.906265  1
  Li  Li4  1  0.698618  0.379061  0.831240  1
  O  O5  1  0.518244  0.721406  0.793177  1
  O  O6  1  0.884741  0.310914  0.965936  1
  O  O7  1  0.875811  0.298016  0.770998  1
  O  O8  1  0.986598  0.326384  0.474412  1
  O  O9  1  0.978847  0.781820  0.705433  1
  O  O10  1  0.889169  0.836688  0.557913  1
  O  O11  1  0.723942  0.491537  0.973821  1
  O  O12  1  0.879655  0.048885  0.157560  1
  O  O13  1  0.741592  0.580502  0.714133  1
  O  O14  1  0.070881  0.907586  0.101671  1
  O  O15  1  0.103441  0.676194  0.037145  1
  O  O16  1  0.141987  0.722502  0.206527  1
  O  O17  1  0.008859  0.648550  0.549188  1
  O  O18  1  0.017735  0.218360  0.301482  1
  O  O19  1  0.167981  0.232171  0.037267  1
  O  O20  1  0.274842  0.519361  0.026750  1
  O  O21  1  0.114960  0.957351  0.838364  1
  O  O22  1  0.252455  0.416634  0.297591  1
  O  O23  1  0.120473  0.149296  0.433849  1
  O  O24  1  0.161248  0.572850  0.644982  1
  O  O25  1  0.408665  0.749082  0.245859  1
  O  O26  1  0.247119  0.086542  0.197101  1
  O  O27  1  0.392783  0.358830  0.069000  1
  O  O28  1  0.371980  0.817205  0.437234  1
  O  O29  1  0.295586  0.885024  0.669321  1
  O  O30  1  0.083476  0.113130  0.648797  1
  O  O31  1  0.117439  0.341982  0.784479  1
  O  O32  1  0.202922  0.599213  0.828177  1
  O  O33  1  0.439149  0.589852  0.397389  1
  O  O34  1  0.331661  0.291147  0.475428  1
  O  O35  1  0.336013  0.923125  0.847325  1
  O  O36  1  0.236137  0.002490  0.498985  1
  O  O37  1  0.595711  0.595489  0.145960  1
  O  O38  1  0.518554  0.176493  0.023862  1
  O  O39  1  0.480607  0.270178  0.204561  1
  O  O40  1  0.629316  0.850953  0.291232  1
  O  O41  1  0.378488  0.533319  0.656915  1
  O  O42  1  0.622195  0.451624  0.350349  1
  O  O43  1  0.371513  0.149029  0.707276  1
  O  O44  1  0.486621  0.848746  0.952555  1
  O  O45  1  0.907850  0.088147  0.892560  1
  O  O46  1  0.650395  0.083359  0.165517  1
  O  O47  1  0.407676  0.404800  0.862628  1
  O  O48  1  0.667502  0.701843  0.526516  1
  O  O49  1  0.765034  0.988573  0.509214  1
  O  O50  1  0.571041  0.407290  0.609490  1
  O  O51  1  0.796576  0.400406  0.169342  1
  O  O52  1  0.878217  0.650448  0.224882  1
  O  O53  1  0.911946  0.887381  0.348314  1
  O  O54  1  0.701409  0.108453  0.338601  1
  O  O55  1  0.626256  0.178482  0.562272  1
  O  O56  1  0.596970  0.653588  0.945603  1
  O  O57  1  0.756249  0.908564  0.788961  1
  O  O58  1  0.583030  0.233040  0.764780  1
  O  O59  1  0.847974  0.412739  0.348040  1
  O  O60  1  0.829330  0.778691  0.966805  1
  P  P61  1  0.937751  0.255387  0.851828  1
  P  P62  1  0.897696  0.703275  0.633806  1
  P  P63  1  0.722601  0.033648  0.234668  1
  P  P64  1  0.804405  0.854383  0.479847  1
  P  P65  1  0.547820  0.244015  0.659856  1
  P  P66  1  0.598165  0.793948  0.867799  1
  P  P67  1  0.782301  0.467764  0.275702  1
  P  P68  1  0.305280  0.380900  0.995233  1
  P  P69  1  0.692517  0.628014  0.011413  1
  P  P70  1  0.053988  0.747446  0.143383  1
  P  P71  1  0.099350  0.287676  0.375407  1
  P  P72  1  0.272539  0.968977  0.767998  1
  P  P73  1  0.219270  0.522365  0.726811  1
  P  P74  1  0.455283  0.747836  0.344748  1
  P  P75  1  0.402325  0.209733  0.126142  1
  P  P76  1  0.196649  0.137641  0.520001  1
  Ni  Ni77  1  0.051332  0.066912  0.197667  1
  Ni  Ni78  1  0.188721  0.789577  0.581581  1
  Ni  Ni79  1  0.450816  0.428786  0.299549  1
  Ni  Ni80  1  0.308378  0.707254  0.912730  1
  Ni  Ni81  1  0.506082  0.499100  0.501789  1
  Ni  Ni82  1  0.688440  0.293979  0.084847  1
  Ni  Ni83  1  0.549062  0.563910  0.705243  1
  Ni  Ni84  1  0.812085  0.202219  0.424886  1
  Ni  Ni85  1  0.944787  0.936352  0.797804  1
