# generated using pymatgen
data_Cr(SiO3)2
_symmetry_space_group_name_H-M   'P 1'
_cell_length_a   6.51117590
_cell_length_b   8.74991676
_cell_length_c   5.33865642
_cell_angle_alpha   89.97974180
_cell_angle_beta   74.79687886
_cell_angle_gamma   47.74973936
_symmetry_Int_Tables_number   1
_chemical_formula_structural   Cr(SiO3)2
_chemical_formula_sum   'Cr2 Si4 O12'
_cell_volume   210.56511896
_cell_formula_units_Z   2
loop_
 _symmetry_equiv_pos_site_id
 _symmetry_equiv_pos_as_xyz
  1  'x, y, z'
loop_
 _atom_site_type_symbol
 _atom_site_label
 _atom_site_symmetry_multiplicity
 _atom_site_fract_x
 _atom_site_fract_y
 _atom_site_fract_z
 _atom_site_occupancy
  Cr  Cr0  1  0.499002  0.899393  0.246545  1
  Cr  Cr1  1  0.499069  0.101054  0.746135  1
  Si  Si2  1  0.100729  0.785392  0.251688  1
  Si  Si3  1  0.897471  0.214755  0.740744  1
  Si  Si4  1  0.897614  0.386877  0.240713  1
  Si  Si5  1  0.100215  0.613512  0.751886  1
  O  O6  1  0.781331  0.364838  0.533038  1
  O  O7  1  0.217659  0.902202  0.217692  1
  O  O8  1  0.269618  0.184977  0.123981  1
  O  O9  1  0.216514  0.635077  0.459200  1
  O  O10  1  0.780970  0.097623  0.774933  1
  O  O11  1  0.728302  0.815459  0.868786  1
  O  O12  1  0.780492  0.620885  0.274956  1
  O  O13  1  0.728569  0.955519  0.369011  1
  O  O14  1  0.781692  0.353016  0.032918  1
  O  O15  1  0.216405  0.647369  0.959372  1
  O  O16  1  0.269507  0.044979  0.623522  1
  O  O17  1  0.217084  0.379584  0.718346  1
