# generated using pymatgen
data_LiFe(GeO3)2
_symmetry_space_group_name_H-M   'P 1'
_cell_length_a   5.44780131
_cell_length_b   8.93562996
_cell_length_c   9.75470582
_cell_angle_alpha   90.00000000
_cell_angle_beta   103.03923726
_cell_angle_gamma   90.00000000
_symmetry_Int_Tables_number   1
_chemical_formula_structural   LiFe(GeO3)2
_chemical_formula_sum   'Li4 Fe4 Ge8 O24'
_cell_volume   462.61080720
_cell_formula_units_Z   4
loop_
 _symmetry_equiv_pos_site_id
 _symmetry_equiv_pos_as_xyz
  1  'x, y, z'
loop_
 _atom_site_type_symbol
 _atom_site_label
 _atom_site_symmetry_multiplicity
 _atom_site_fract_x
 _atom_site_fract_y
 _atom_site_fract_z
 _atom_site_occupancy
  Li  Li0  1  0.536304  0.490881  0.256073  1
  Li  Li1  1  0.963696  0.990881  0.743927  1
  Li  Li2  1  0.463696  0.509119  0.743927  1
  Li  Li3  1  0.036304  0.009119  0.256073  1
  O  O4  1  0.683167  0.332344  0.858259  1
  O  O5  1  0.816833  0.832344  0.141741  1
  O  O6  1  0.316833  0.667656  0.141741  1
  O  O7  1  0.183167  0.167656  0.858259  1
  O  O8  1  0.827842  0.519834  0.115548  1
  O  O9  1  0.672158  0.019834  0.884452  1
  O  O10  1  0.172158  0.480166  0.884452  1
  O  O11  1  0.327842  0.980166  0.115548  1
  O  O12  1  0.501249  0.292875  0.116192  1
  O  O13  1  0.998751  0.792875  0.883808  1
  O  O14  1  0.498751  0.707125  0.883808  1
  O  O15  1  0.001249  0.207125  0.116192  1
  O  O16  1  0.655322  0.810958  0.611272  1
  O  O17  1  0.844678  0.310958  0.388728  1
  O  O18  1  0.344678  0.189042  0.388728  1
  O  O19  1  0.155322  0.689042  0.611272  1
  O  O20  1  0.256168  0.832008  0.363508  1
  O  O21  1  0.243832  0.332008  0.636492  1
  O  O22  1  0.743832  0.167992  0.636492  1
  O  O23  1  0.756168  0.667992  0.363508  1
  O  O24  1  0.246070  0.002109  0.630598  1
  O  O25  1  0.253930  0.502109  0.369402  1
  O  O26  1  0.753930  0.997891  0.369402  1
  O  O27  1  0.746070  0.497891  0.630598  1
  Fe  Fe28  1  0.963199  0.349730  0.748982  1
  Fe  Fe29  1  0.536801  0.849730  0.251018  1
  Fe  Fe30  1  0.463199  0.150270  0.748982  1
  Fe  Fe31  1  0.036801  0.650270  0.251018  1
  Ge  Ge32  1  0.322921  0.839479  0.551544  1
  Ge  Ge33  1  0.177079  0.339479  0.448456  1
  Ge  Ge34  1  0.822921  0.660521  0.551544  1
  Ge  Ge35  1  0.677079  0.160521  0.448456  1
  Ge  Ge36  1  0.265930  0.158384  0.045367  1
  Ge  Ge37  1  0.234070  0.658384  0.954633  1
  Ge  Ge38  1  0.734070  0.841616  0.954633  1
  Ge  Ge39  1  0.765930  0.341616  0.045367  1
