# generated using pymatgen
data_LiFePO4
_symmetry_space_group_name_H-M   'P 1'
_cell_length_a   7.52726658
_cell_length_b   7.52729701
_cell_length_c   9.58360841
_cell_angle_alpha   89.99994060
_cell_angle_beta   90.00002969
_cell_angle_gamma   120.00013372
_symmetry_Int_Tables_number   1
_chemical_formula_structural   LiFePO4
_chemical_formula_sum   'Li6 Fe6 P6 O24'
_cell_volume   470.25720221
_cell_formula_units_Z   6
loop_
 _symmetry_equiv_pos_site_id
 _symmetry_equiv_pos_as_xyz
  1  'x, y, z'
loop_
 _atom_site_type_symbol
 _atom_site_label
 _atom_site_symmetry_multiplicity
 _atom_site_fract_x
 _atom_site_fract_y
 _atom_site_fract_z
 _atom_site_occupancy
  Li  Li0  1  0.204551  0.949959  0.259426  1
  Li  Li1  1  0.949958  0.204543  0.759428  1
  Li  Li2  1  0.795449  0.745409  0.759425  1
  Li  Li3  1  0.745419  0.795460  0.259427  1
  Li  Li4  1  0.254581  0.050041  0.759427  1
  Li  Li5  1  0.050043  0.254585  0.259428  1
  O  O6  1  0.119899  0.498076  0.828031  1
  O  O7  1  0.666678  0.333349  0.111531  1
  O  O8  1  0.896990  0.775955  0.951717  1
  O  O9  1  0.829307  0.549390  0.634224  1
  O  O10  1  0.720079  0.170679  0.634225  1
  O  O11  1  0.880102  0.378177  0.328031  1
  O  O12  1  0.103010  0.878966  0.451717  1
  O  O13  1  0.170692  0.720083  0.134224  1
  O  O14  1  0.549400  0.829309  0.134222  1
  O  O15  1  0.378154  0.880085  0.828030  1
  O  O16  1  0.333339  0.666665  0.350773  1
  O  O17  1  0.666661  0.333326  0.850773  1
  O  O18  1  0.333322  0.666671  0.611531  1
  O  O19  1  0.121040  0.224055  0.451724  1
  O  O20  1  0.279921  0.450599  0.134225  1
  O  O21  1  0.878961  0.103014  0.951724  1
  O  O22  1  0.224052  0.121043  0.951718  1
  O  O23  1  0.501913  0.621827  0.828023  1
  O  O24  1  0.450600  0.279909  0.634222  1
  O  O25  1  0.775947  0.896990  0.451718  1
  O  O26  1  0.621845  0.501931  0.328030  1
  O  O27  1  0.498086  0.119914  0.328023  1
  O  O28  1  1.000006  1.000000  0.170110  1
  O  O29  1  -0.000006  -0.000006  0.670110  1
  P  P30  1  0.333337  0.666666  0.184949  1
  P  P31  1  0.999997  1.000000  0.508903  1
  P  P32  1  0.333322  0.666661  0.777762  1
  P  P33  1  0.000003  1.000002  0.008903  1
  P  P34  1  0.666678  0.333340  0.277762  1
  P  P35  1  0.666662  0.333328  0.684949  1
  Fe  Fe36  1  0.950113  0.535864  0.980991  1
  Fe  Fe37  1  0.585745  0.049880  0.980974  1
  Fe  Fe38  1  0.464148  0.414262  0.980981  1
  Fe  Fe39  1  0.414256  0.464135  0.480974  1
  Fe  Fe40  1  0.535852  0.950114  0.480982  1
  Fe  Fe41  1  0.049887  0.585750  0.480991  1
