# generated using pymatgen
data_LiCrP2O7
_symmetry_space_group_name_H-M   'P 1'
_cell_length_a   5.24672950
_cell_length_b   5.24672950
_cell_length_c   4.52164465
_cell_angle_alpha   81.60532803
_cell_angle_beta   98.39467206
_cell_angle_gamma   77.47671040
_symmetry_Int_Tables_number   1
_chemical_formula_structural   LiCrP2O7
_chemical_formula_sum   'Li1 Cr1 P2 O7'
_cell_volume   118.15801913
_cell_formula_units_Z   1
loop_
 _symmetry_equiv_pos_site_id
 _symmetry_equiv_pos_as_xyz
  1  'x, y, z'
loop_
 _atom_site_type_symbol
 _atom_site_label
 _atom_site_symmetry_multiplicity
 _atom_site_fract_x
 _atom_site_fract_y
 _atom_site_fract_z
 _atom_site_occupancy
  Li  Li0  1  0.749110  0.749109  0.000000  1
  O  O1  1  0.126947  0.463337  0.742469  1
  O  O2  1  0.072001  0.815020  0.285701  1
  O  O3  1  0.347064  0.848231  0.801358  1
  O  O4  1  0.530085  0.530085  0.500000  1
  O  O5  1  0.848232  0.347064  0.198642  1
  O  O6  1  0.463336  0.126948  0.257531  1
  O  O7  1  0.815021  0.072000  0.714300  1
  P  P8  1  0.253065  0.668126  0.589875  1
  P  P9  1  0.668125  0.253064  0.410125  1
  Cr  Cr10  1  0.121867  0.121868  1.000000  1
