# generated using pymatgen
data_CrPO4
_symmetry_space_group_name_H-M   'P 1'
_cell_length_a   7.75396368
_cell_length_b   11.16116152
_cell_length_c   6.00613469
_cell_angle_alpha   90.00000000
_cell_angle_beta   90.00000000
_cell_angle_gamma   90.00000000
_symmetry_Int_Tables_number   1
_chemical_formula_structural   CrPO4
_chemical_formula_sum   'Cr8 P8 O32'
_cell_volume   519.79036227
_cell_formula_units_Z   8
loop_
 _symmetry_equiv_pos_site_id
 _symmetry_equiv_pos_as_xyz
  1  'x, y, z'
loop_
 _atom_site_type_symbol
 _atom_site_label
 _atom_site_symmetry_multiplicity
 _atom_site_fract_x
 _atom_site_fract_y
 _atom_site_fract_z
 _atom_site_occupancy
  O  O0  1  0.536120  0.558282  0.821459  1
  O  O1  1  0.963880  0.058281  0.821459  1
  O  O2  1  0.901377  0.267939  0.680004  1
  O  O3  1  0.901377  0.232062  0.180004  1
  O  O4  1  0.878917  0.855194  0.511319  1
  O  O5  1  0.878917  0.644807  0.011319  1
  O  O6  1  0.798367  0.420645  0.969483  1
  O  O7  1  0.798367  0.079355  0.469482  1
  O  O8  1  0.036120  0.558282  0.678542  1
  O  O9  1  0.036120  0.941719  0.178541  1
  O  O10  1  0.098623  0.732062  0.319996  1
  O  O11  1  0.098623  0.767938  0.819996  1
  O  O12  1  0.121083  0.144806  0.488681  1
  O  O13  1  0.121083  0.355193  0.988681  1
  O  O14  1  0.201633  0.579355  0.030518  1
  O  O15  1  0.201633  0.920645  0.530518  1
  O  O16  1  0.298366  0.079355  0.030518  1
  O  O17  1  0.298366  0.420645  0.530518  1
  O  O18  1  0.378917  0.644807  0.488681  1
  O  O19  1  0.701634  0.920645  0.969483  1
  O  O20  1  0.401377  0.232062  0.319996  1
  O  O21  1  0.401377  0.267939  0.819996  1
  O  O22  1  0.463879  0.058281  0.678542  1
  O  O23  1  0.463879  0.441719  0.178541  1
  O  O24  1  0.963880  0.441719  0.321459  1
  O  O25  1  0.536120  0.941719  0.321459  1
  O  O26  1  0.598623  0.732062  0.180004  1
  O  O27  1  0.598623  0.767938  0.680004  1
  O  O28  1  0.621083  0.144806  0.011319  1
  O  O29  1  0.621083  0.355193  0.511319  1
  O  O30  1  0.701634  0.579355  0.469482  1
  O  O31  1  0.378917  0.855194  0.988681  1
  P  P32  1  0.051602  0.643011  0.892877  1
  P  P33  1  0.051602  0.856989  0.392877  1
  P  P34  1  0.448397  0.143011  0.892877  1
  P  P35  1  0.448397  0.356989  0.392877  1
  P  P36  1  0.551603  0.643011  0.607122  1
  P  P37  1  0.551603  0.856989  0.107123  1
  P  P38  1  0.948398  0.143011  0.607122  1
  P  P39  1  0.948398  0.356989  0.107123  1
  Cr  Cr40  1  0.829467  0.433499  0.609701  1
  Cr  Cr41  1  0.829467  0.066501  0.109701  1
  Cr  Cr42  1  0.670533  0.933499  0.609701  1
  Cr  Cr43  1  0.670533  0.566501  0.109701  1
  Cr  Cr44  1  0.329467  0.433499  0.890301  1
  Cr  Cr45  1  0.329467  0.066501  0.390299  1
  Cr  Cr46  1  0.170533  0.933499  0.890301  1
  Cr  Cr47  1  0.170533  0.566501  0.390299  1
