# generated using pymatgen
data_Fe(PO3)4
_symmetry_space_group_name_H-M   'P 1'
_cell_length_a   7.47505360
_cell_length_b   7.47502719
_cell_length_c   9.95930040
_cell_angle_alpha   84.95965194
_cell_angle_beta   66.42000185
_cell_angle_gamma   110.48015654
_symmetry_Int_Tables_number   1
_chemical_formula_structural   Fe(PO3)4
_chemical_formula_sum   'Fe2 P8 O24'
_cell_volume   460.65863712
_cell_formula_units_Z   2
loop_
 _symmetry_equiv_pos_site_id
 _symmetry_equiv_pos_as_xyz
  1  'x, y, z'
loop_
 _atom_site_type_symbol
 _atom_site_label
 _atom_site_symmetry_multiplicity
 _atom_site_fract_x
 _atom_site_fract_y
 _atom_site_fract_z
 _atom_site_occupancy
  O  O0  1  0.499459  0.140392  0.624400  1
  O  O1  1  0.963095  0.356915  0.844422  1
  O  O2  1  0.036869  0.642991  0.155609  1
  O  O3  1  0.122274  0.318815  0.059083  1
  O  O4  1  0.122217  0.818781  0.559004  1
  O  O5  1  0.175118  0.641281  0.346819  1
  O  O6  1  0.032988  0.151482  0.652908  1
  O  O7  1  0.226089  0.527260  0.565881  1
  O  O8  1  0.406931  0.208034  0.065856  1
  O  O9  1  0.488134  0.521988  0.153153  1
  O  O10  1  0.500462  0.859595  0.375633  1
  O  O11  1  0.298644  0.192613  0.344395  1
  O  O12  1  0.304407  0.685907  0.847087  1
  O  O13  1  0.735374  0.876117  0.124336  1
  O  O14  1  0.264697  0.123902  0.875650  1
  O  O15  1  0.877724  0.181256  0.440991  1
  O  O16  1  0.701338  0.807420  0.655564  1
  O  O17  1  0.877787  0.681169  0.940916  1
  O  O18  1  0.511907  0.478030  0.846816  1
  O  O19  1  0.593171  0.791986  0.934096  1
  O  O20  1  0.773844  0.472772  0.434186  1
  O  O21  1  0.967019  0.848530  0.347050  1
  O  O22  1  0.824820  0.358682  0.653232  1
  O  O23  1  0.695613  0.314093  0.152943  1
  P  P24  1  0.309477  0.274590  0.962981  1
  P  P25  1  0.737502  0.272437  0.537083  1
  P  P26  1  0.989129  0.663702  0.312398  1
  P  P27  1  0.262454  0.727584  0.462946  1
  P  P28  1  0.690590  0.725395  0.036985  1
  P  P29  1  0.476110  0.301589  0.187629  1
  P  P30  1  0.523924  0.698422  0.812361  1
  P  P31  1  0.010838  0.336271  0.687610  1
  Fe  Fe32  1  0.999982  0.000023  0.499963  1
  Fe  Fe33  1  0.000015  0.499975  1.000010  1
