# generated using pymatgen
data_LiSnPO4
_symmetry_space_group_name_H-M   'P 1'
_cell_length_a   7.95790631
_cell_length_b   7.95735669
_cell_length_c   10.27308400
_cell_angle_alpha   89.99922322
_cell_angle_beta   90.00038838
_cell_angle_gamma   119.99771536
_symmetry_Int_Tables_number   1
_chemical_formula_structural   LiSnPO4
_chemical_formula_sum   'Li6 Sn6 P6 O24'
_cell_volume   563.38997725
_cell_formula_units_Z   6
loop_
 _symmetry_equiv_pos_site_id
 _symmetry_equiv_pos_as_xyz
  1  'x, y, z'
loop_
 _atom_site_type_symbol
 _atom_site_label
 _atom_site_symmetry_multiplicity
 _atom_site_fract_x
 _atom_site_fract_y
 _atom_site_fract_z
 _atom_site_occupancy
  Li  Li0  1  0.211344  0.978683  0.251763  1
  Li  Li1  1  0.021394  0.232720  0.251792  1
  Li  Li2  1  0.232686  0.021333  0.751747  1
  Li  Li3  1  0.767314  0.788647  0.251747  1
  Li  Li4  1  0.788656  0.767339  0.751763  1
  Li  Li5  1  0.978606  0.211326  0.751792  1
  O  O6  1  0.097980  0.887230  0.443205  1
  O  O7  1  0.222238  0.769787  0.144584  1
  O  O8  1  0.229596  0.775965  0.807098  1
  O  O9  1  0.223968  0.453507  0.807487  1
  O  O10  1  0.333208  0.666583  0.345930  1
  O  O11  1  -0.000014  0.000042  0.150358  1
  O  O12  1  0.333068  0.666040  0.604030  1
  O  O13  1  0.112882  0.210873  0.443218  1
  O  O14  1  0.230281  0.452592  0.144521  1
  O  O15  1  0.547461  0.777852  0.144632  1
  O  O16  1  0.210718  0.112858  0.943191  1
  O  O17  1  0.546393  0.770271  0.807155  1
  O  O18  1  0.452539  0.230391  0.644632  1
  O  O19  1  0.789282  0.902140  0.443191  1
  O  O20  1  0.453607  0.223878  0.307155  1
  O  O21  1  0.770404  0.546370  0.307098  1
  O  O22  1  0.666792  0.333375  0.845930  1
  O  O23  1  0.666932  0.332972  0.104030  1
  O  O24  1  0.902020  0.789251  0.943205  1
  O  O25  1  0.777762  0.547549  0.644584  1
  O  O26  1  0.769719  0.222311  0.644521  1
  O  O27  1  0.776032  0.229540  0.307487  1
  O  O28  1  0.887118  0.097992  0.943218  1
  O  O29  1  1.000014  0.000056  0.650358  1
  P  P30  1  1.000041  0.000064  0.499752  1
  P  P31  1  -0.000041  0.000023  0.999752  1
  P  P32  1  0.333314  0.666726  0.195105  1
  P  P33  1  0.333296  0.666512  0.754342  1
  P  P34  1  0.666686  0.333412  0.695105  1
  P  P35  1  0.666704  0.333216  0.254342  1
  Sn  Sn36  1  0.005684  0.574663  0.473326  1
  Sn  Sn37  1  0.569180  0.994583  0.473315  1
  Sn  Sn38  1  0.425378  0.431163  0.473339  1
  Sn  Sn39  1  0.430820  0.425402  0.973315  1
  Sn  Sn40  1  0.574622  0.005786  0.973339  1
  Sn  Sn41  1  0.994316  0.568979  0.973326  1
