# generated using pymatgen
data_FePO4
_symmetry_space_group_name_H-M   'P 1'
_cell_length_a   4.88641212
_cell_length_b   5.90723838
_cell_length_c   9.97624950
_cell_angle_alpha   90.00000000
_cell_angle_beta   90.00000000
_cell_angle_gamma   90.00000000
_symmetry_Int_Tables_number   1
_chemical_formula_structural   FePO4
_chemical_formula_sum   'Fe4 P4 O16'
_cell_volume   287.96644920
_cell_formula_units_Z   4
loop_
 _symmetry_equiv_pos_site_id
 _symmetry_equiv_pos_as_xyz
  1  'x, y, z'
loop_
 _atom_site_type_symbol
 _atom_site_label
 _atom_site_symmetry_multiplicity
 _atom_site_fract_x
 _atom_site_fract_y
 _atom_site_fract_z
 _atom_site_occupancy
  O  O0  1  0.242625  0.453109  0.330713  1
  O  O1  1  0.742625  0.546891  0.169287  1
  O  O2  1  0.757375  0.953109  0.669287  1
  O  O3  1  0.257375  0.046891  0.830713  1
  O  O4  1  0.757375  0.546891  0.669287  1
  O  O5  1  0.257375  0.453109  0.830713  1
  O  O6  1  0.242625  0.046891  0.330713  1
  O  O7  1  0.742625  0.953109  0.169287  1
  O  O8  1  0.286622  0.750000  0.122892  1
  O  O9  1  0.786622  0.250000  0.377108  1
  O  O10  1  0.713378  0.250000  0.877108  1
  O  O11  1  0.213378  0.750000  0.622892  1
  O  O12  1  0.850138  0.750000  0.445710  1
  O  O13  1  0.350138  0.250000  0.054290  1
  O  O14  1  0.149862  0.250000  0.554290  1
  O  O15  1  0.649862  0.750000  0.945710  1
  P  P16  1  0.905886  0.750000  0.596342  1
  P  P17  1  0.405886  0.250000  0.903658  1
  P  P18  1  0.094114  0.250000  0.403658  1
  P  P19  1  0.594114  0.750000  0.096342  1
  Fe  Fe20  1  0.456583  0.750000  0.775080  1
  Fe  Fe21  1  0.956583  0.250000  0.724920  1
  Fe  Fe22  1  0.543417  0.250000  0.224920  1
  Fe  Fe23  1  0.043417  0.750000  0.275080  1
