# generated using pymatgen
data_Ni4P7O24
_symmetry_space_group_name_H-M   'P 1'
_cell_length_a   10.40372629
_cell_length_b   10.34801876
_cell_length_c   11.18887126
_cell_angle_alpha   112.80420978
_cell_angle_beta   110.41840657
_cell_angle_gamma   104.50225467
_symmetry_Int_Tables_number   1
_chemical_formula_structural   Ni4P7O24
_chemical_formula_sum   'Ni8 P14 O48'
_cell_volume   931.21651806
_cell_formula_units_Z   2
loop_
 _symmetry_equiv_pos_site_id
 _symmetry_equiv_pos_as_xyz
  1  'x, y, z'
loop_
 _atom_site_type_symbol
 _atom_site_label
 _atom_site_symmetry_multiplicity
 _atom_site_fract_x
 _atom_site_fract_y
 _atom_site_fract_z
 _atom_site_occupancy
  O  O0  1  0.991967  0.132953  0.869990  1
  O  O1  1  0.992629  0.330529  0.126624  1
  O  O2  1  0.965394  0.325174  0.338065  1
  O  O3  1  0.692086  0.117902  0.048843  1
  O  O4  1  0.819415  0.181582  0.462061  1
  O  O5  1  0.723881  0.638821  0.076860  1
  O  O6  1  0.878306  0.296756  0.731091  1
  O  O7  1  0.829824  0.976463  0.195058  1
  O  O8  1  0.007370  0.669471  0.873376  1
  O  O9  1  0.034606  0.674826  0.661936  1
  O  O10  1  0.307914  0.882098  0.951158  1
  O  O11  1  0.008033  0.867046  0.130010  1
  O  O12  1  0.180585  0.818418  0.537939  1
  O  O13  1  0.276120  0.361180  0.923141  1
  O  O14  1  0.121695  0.703245  0.268910  1
  O  O15  1  0.170176  0.023537  0.804942  1
  O  O16  1  0.309366  0.990339  0.461327  1
  O  O17  1  0.326593  0.692757  0.702292  1
  O  O18  1  0.088812  0.063776  0.400800  1
  O  O19  1  0.063195  0.145363  0.207141  1
  O  O20  1  0.278490  0.175075  0.669229  1
  O  O21  1  0.226615  0.439274  0.362180  1
  O  O22  1  0.134322  0.505388  0.011198  1
  O  O23  1  0.375242  0.771456  0.459109  1
  O  O24  1  0.549381  0.715934  0.896666  1
  O  O25  1  0.297913  0.841652  0.157173  1
  O  O26  1  0.596171  0.887967  0.789060  1
  O  O27  1  0.356915  0.262163  0.510166  1
  O  O28  1  0.507394  0.605042  0.628176  1
  O  O29  1  0.444891  0.041168  0.828822  1
  O  O30  1  0.595657  0.363415  0.953233  1
  O  O31  1  0.358686  0.525534  0.203176  1
  O  O32  1  0.641313  0.474465  0.796824  1
  O  O33  1  0.404342  0.636584  0.046768  1
  O  O34  1  0.555109  0.958831  0.171178  1
  O  O35  1  0.492607  0.394959  0.371824  1
  O  O36  1  0.643085  0.737837  0.489834  1
  O  O37  1  0.403830  0.112034  0.210940  1
  O  O38  1  0.702087  0.158347  0.842827  1
  O  O39  1  0.450619  0.284065  0.103333  1
  O  O40  1  0.624758  0.228543  0.540891  1
  O  O41  1  0.865679  0.494612  0.988803  1
  O  O42  1  0.773384  0.560726  0.637819  1
  O  O43  1  0.721510  0.824925  0.330771  1
  O  O44  1  0.936805  0.854637  0.792859  1
  O  O45  1  0.690633  0.009661  0.538673  1
  O  O46  1  0.673407  0.307244  0.297708  1
  O  O47  1  0.911188  0.936223  0.599199  1
  P  P48  1  0.294053  0.508267  0.050268  1
  P  P49  1  0.705945  0.491732  0.949731  1
  P  P50  1  0.611566  0.061270  0.883684  1
  P  P51  1  0.732643  0.866781  0.478952  1
  P  P52  1  0.388434  0.938730  0.116316  1
  P  P53  1  0.506623  0.280949  0.246445  1
  P  P54  1  0.938291  0.683878  0.737192  1
  P  P55  1  0.757375  0.184339  0.565373  1
  P  P56  1  0.008491  0.997987  0.774886  1
  P  P57  1  0.242625  0.815662  0.434628  1
  P  P58  1  0.061708  0.316121  0.262808  1
  P  P59  1  0.493377  0.719050  0.753555  1
  P  P60  1  0.267357  0.133219  0.521048  1
  P  P61  1  0.991510  0.002014  0.225116  1
  Ni  Ni62  1  0.762514  0.153200  0.258624  1
  Ni  Ni63  1  0.923845  0.305651  0.924108  1
  Ni  Ni64  1  0.627615  0.783735  0.119407  1
  Ni  Ni65  1  0.565812  0.414478  0.582325  1
  Ni  Ni66  1  0.434188  0.585522  0.417675  1
  Ni  Ni67  1  0.372385  0.216265  0.880593  1
  Ni  Ni68  1  0.076155  0.694349  0.075892  1
  Ni  Ni69  1  0.237486  0.846799  0.741376  1
