# generated using pymatgen
data_VP2O7
_symmetry_space_group_name_H-M   'P 1'
_cell_length_a   8.62357430
_cell_length_b   5.17761743
_cell_length_c   12.15928001
_cell_angle_alpha   90.00000000
_cell_angle_beta   77.40832353
_cell_angle_gamma   90.00000000
_symmetry_Int_Tables_number   1
_chemical_formula_structural   VP2O7
_chemical_formula_sum   'V4 P8 O28'
_cell_volume   529.84885720
_cell_formula_units_Z   4
loop_
 _symmetry_equiv_pos_site_id
 _symmetry_equiv_pos_as_xyz
  1  'x, y, z'
loop_
 _atom_site_type_symbol
 _atom_site_label
 _atom_site_symmetry_multiplicity
 _atom_site_fract_x
 _atom_site_fract_y
 _atom_site_fract_z
 _atom_site_occupancy
  V  V0  1  0.236264  0.238954  0.035576  1
  V  V1  1  0.263736  0.738954  0.464424  1
  V  V2  1  0.736264  0.261046  0.535576  1
  V  V3  1  0.763736  0.761046  0.964424  1
  P  P4  1  0.977921  0.243190  0.859264  1
  P  P5  1  0.522079  0.743190  0.640736  1
  P  P6  1  0.075635  0.225584  0.612665  1
  P  P7  1  0.924365  0.774416  0.387335  1
  P  P8  1  0.477921  0.256810  0.359264  1
  P  P9  1  0.022079  0.756810  0.140736  1
  P  P10  1  0.575635  0.274416  0.112665  1
  P  P11  1  0.424365  0.725584  0.887335  1
  O  O12  1  0.408997  0.528196  0.354182  1
  O  O13  1  0.313455  0.914427  0.959800  1
  O  O14  1  0.186545  0.414427  0.540200  1
  O  O15  1  0.897604  0.280910  0.618026  1
  O  O16  1  0.084033  0.264688  0.944969  1
  O  O17  1  0.591003  0.471804  0.645818  1
  O  O18  1  0.908997  0.971804  0.854182  1
  O  O19  1  0.143343  0.540935  0.125292  1
  O  O20  1  0.686545  0.085573  0.040200  1
  O  O21  1  0.856657  0.459065  0.874708  1
  O  O22  1  0.091003  0.028196  0.145818  1
  O  O23  1  0.397604  0.219090  0.118026  1
  O  O24  1  0.616525  0.555101  0.082751  1
  O  O25  1  0.102396  0.719090  0.381974  1
  O  O26  1  0.584033  0.235312  0.444969  1
  O  O27  1  0.099194  0.278269  0.738822  1
  O  O28  1  0.643343  0.959065  0.625292  1
  O  O29  1  0.900806  0.721731  0.261178  1
  O  O30  1  0.400806  0.778269  0.761178  1
  O  O31  1  0.116525  0.944899  0.582751  1
  O  O32  1  0.602396  0.780910  0.881974  1
  O  O33  1  0.415967  0.764688  0.555031  1
  O  O34  1  0.883475  0.055101  0.417249  1
  O  O35  1  0.383475  0.444899  0.917249  1
  O  O36  1  0.915967  0.735312  0.055031  1
  O  O37  1  0.599194  0.221731  0.238822  1
  O  O38  1  0.813455  0.585573  0.459800  1
  O  O39  1  0.356657  0.040935  0.374708  1
