# generated using pymatgen
data_LiMo(PO4)2
_symmetry_space_group_name_H-M   'P 1'
_cell_length_a   4.71455124
_cell_length_b   5.17476380
_cell_length_c   13.95945712
_cell_angle_alpha   85.05218839
_cell_angle_beta   90.00000000
_cell_angle_gamma   62.90076710
_symmetry_Int_Tables_number   1
_chemical_formula_structural   LiMo(PO4)2
_chemical_formula_sum   'Li2 Mo2 P4 O16'
_cell_volume   301.75073417
_cell_formula_units_Z   2
loop_
 _symmetry_equiv_pos_site_id
 _symmetry_equiv_pos_as_xyz
  1  'x, y, z'
loop_
 _atom_site_type_symbol
 _atom_site_label
 _atom_site_symmetry_multiplicity
 _atom_site_fract_x
 _atom_site_fract_y
 _atom_site_fract_z
 _atom_site_occupancy
  Li  Li0  1  0.930388  0.000000  0.750000  1
  Li  Li1  1  0.069612  0.000000  0.250000  1
  Mo  Mo2  1  -0.000000  0.000000  -0.000000  1
  Mo  Mo3  1  -0.000000  0.000000  0.500000  1
  P  P4  1  0.642123  0.676032  0.880344  1
  P  P5  1  0.318156  0.323968  0.619656  1
  P  P6  1  0.357877  0.323968  0.119656  1
  P  P7  1  0.681844  0.676032  0.380344  1
  O  O8  1  0.860836  0.870049  0.380431  1
  O  O9  1  0.269116  0.870049  0.880431  1
  O  O10  1  0.565552  0.210625  0.536339  1
  O  O11  1  0.730884  0.129951  0.119569  1
  O  O12  1  0.223823  0.210625  0.036339  1
  O  O13  1  0.292225  0.639825  0.082232  1
  O  O14  1  0.932051  0.360175  0.417768  1
  O  O15  1  0.210970  0.301578  0.212200  1
  O  O16  1  0.434448  0.789375  0.463661  1
  O  O17  1  0.512548  0.698422  0.287800  1
  O  O18  1  0.776177  0.789375  0.963661  1
  O  O19  1  0.707775  0.360175  0.917768  1
  O  O20  1  0.067949  0.639825  0.582232  1
  O  O21  1  0.789030  0.698422  0.787800  1
  O  O22  1  0.487452  0.301578  0.712200  1
  O  O23  1  0.139164  0.129951  0.619569  1
