# generated using pymatgen
data_LiMn2P3O10
_symmetry_space_group_name_H-M   'P 1'
_cell_length_a   4.70913145
_cell_length_b   8.81930602
_cell_length_c   9.23330522
_cell_angle_alpha   90.00000000
_cell_angle_beta   97.38781544
_cell_angle_gamma   90.00000000
_symmetry_Int_Tables_number   1
_chemical_formula_structural   LiMn2P3O10
_chemical_formula_sum   'Li2 Mn4 P6 O20'
_cell_volume   380.28753215
_cell_formula_units_Z   2
loop_
 _symmetry_equiv_pos_site_id
 _symmetry_equiv_pos_as_xyz
  1  'x, y, z'
loop_
 _atom_site_type_symbol
 _atom_site_label
 _atom_site_symmetry_multiplicity
 _atom_site_fract_x
 _atom_site_fract_y
 _atom_site_fract_z
 _atom_site_occupancy
  Li  Li0  1  0.000000  0.000000  0.000000  1
  Li  Li1  1  0.000000  0.500000  0.000000  1
  O  O2  1  0.230476  0.895351  0.481653  1
  O  O3  1  0.840370  0.604165  0.182563  1
  O  O4  1  0.747561  0.250000  0.233479  1
  O  O5  1  0.769523  0.395351  0.518347  1
  O  O6  1  0.159630  0.104166  0.817436  1
  O  O7  1  0.159630  0.395834  0.817436  1
  O  O8  1  0.252440  0.749999  0.766521  1
  O  O9  1  0.230476  0.604649  0.481653  1
  O  O10  1  0.840370  0.895835  0.182563  1
  O  O11  1  0.302730  0.250000  0.447375  1
  O  O12  1  0.281901  0.105071  0.150557  1
  O  O13  1  0.281901  0.394928  0.150557  1
  O  O14  1  0.551911  0.250000  0.972120  1
  O  O15  1  0.446163  0.749999  0.290238  1
  O  O16  1  0.769523  0.104649  0.518347  1
  O  O17  1  0.448088  0.749999  0.027880  1
  O  O18  1  0.718100  0.605072  0.849443  1
  O  O19  1  0.718100  0.894928  0.849443  1
  O  O20  1  0.697269  0.749999  0.552625  1
  O  O21  1  0.553836  0.250000  0.709762  1
  P  P22  1  0.670413  0.749999  0.175879  1
  P  P23  1  0.598848  0.250000  0.537477  1
  P  P24  1  0.455839  0.250000  0.138297  1
  P  P25  1  0.544163  0.749999  0.861704  1
  P  P26  1  0.329586  0.250000  0.824121  1
  P  P27  1  0.401153  0.749999  0.462523  1
  Mn  Mn28  1  0.034168  0.065062  0.332158  1
  Mn  Mn29  1  0.034168  0.434939  0.332158  1
  Mn  Mn30  1  0.965831  0.565061  0.667842  1
  Mn  Mn31  1  0.965831  0.934939  0.667842  1
