# generated using pymatgen
data_Co(PO3)3
_symmetry_space_group_name_H-M   'P 1'
_cell_length_a   8.48394033
_cell_length_b   8.47725617
_cell_length_c   8.66673587
_cell_angle_alpha   90.00000000
_cell_angle_beta   90.00000000
_cell_angle_gamma   90.00000000
_symmetry_Int_Tables_number   1
_chemical_formula_structural   Co(PO3)3
_chemical_formula_sum   'Co4 P12 O36'
_cell_volume   623.31628488
_cell_formula_units_Z   4
loop_
 _symmetry_equiv_pos_site_id
 _symmetry_equiv_pos_as_xyz
  1  'x, y, z'
loop_
 _atom_site_type_symbol
 _atom_site_label
 _atom_site_symmetry_multiplicity
 _atom_site_fract_x
 _atom_site_fract_y
 _atom_site_fract_z
 _atom_site_occupancy
  O  O0  1  0.634698  0.312781  0.362671  1
  O  O1  1  0.955608  0.279086  0.852529  1
  O  O2  1  0.904155  0.376757  0.582290  1
  O  O3  1  0.898012  0.131100  0.377326  1
  O  O4  1  0.044392  0.779087  0.647470  1
  O  O5  1  0.095845  0.876757  0.917711  1
  O  O6  1  0.101988  0.631099  0.122673  1
  O  O7  1  0.098274  0.408019  0.323575  1
  O  O8  1  0.134698  0.187219  0.637329  1
  O  O9  1  0.143124  0.467334  0.743797  1
  O  O10  1  0.157545  0.840535  0.387969  1
  O  O11  1  0.189250  0.080027  0.138619  1
  O  O12  1  0.215482  0.363595  0.055476  1
  O  O13  1  0.284518  0.636406  0.555475  1
  O  O14  1  0.310751  0.919973  0.638618  1
  O  O15  1  0.342455  0.159465  0.887969  1
  O  O16  1  0.356876  0.532665  0.243797  1
  O  O17  1  0.365302  0.812780  0.137330  1
  O  O18  1  0.401726  0.591980  0.823575  1
  O  O19  1  0.398012  0.368900  0.622673  1
  O  O20  1  0.404155  0.123243  0.417711  1
  O  O21  1  0.455608  0.220914  0.147470  1
  O  O22  1  0.544392  0.720913  0.352530  1
  O  O23  1  0.865302  0.687219  0.862671  1
  O  O24  1  0.601988  0.868900  0.877326  1
  O  O25  1  0.598274  0.091980  0.676425  1
  O  O26  1  0.901726  0.908020  0.176425  1
  O  O27  1  0.643124  0.032666  0.256202  1
  O  O28  1  0.657547  0.659466  0.612031  1
  O  O29  1  0.689250  0.419974  0.861381  1
  O  O30  1  0.715482  0.136405  0.944524  1
  O  O31  1  0.784518  0.863594  0.444524  1
  O  O32  1  0.810751  0.580026  0.361381  1
  O  O33  1  0.842455  0.340534  0.112031  1
  O  O34  1  0.856876  0.967334  0.756202  1
  O  O35  1  0.595845  0.623243  0.082289  1
  P  P36  1  0.681239  0.012401  0.808858  1
  P  P37  1  0.703627  0.690814  0.449057  1
  P  P38  1  0.796374  0.309186  0.949056  1
  P  P39  1  0.818760  0.987599  0.308858  1
  P  P40  1  0.032160  0.321682  0.688731  1
  P  P41  1  0.181239  0.487600  0.191142  1
  P  P42  1  0.203627  0.809185  0.550943  1
  P  P43  1  0.296373  0.190814  0.050943  1
  P  P44  1  0.318761  0.512401  0.691142  1
  P  P45  1  0.467841  0.678318  0.188731  1
  P  P46  1  0.532160  0.178319  0.311268  1
  P  P47  1  0.967841  0.821682  0.811268  1
  Co  Co48  1  0.867604  0.358500  0.352787  1
  Co  Co49  1  0.632396  0.641500  0.852787  1
  Co  Co50  1  0.367604  0.141499  0.647214  1
  Co  Co51  1  0.132396  0.858501  0.147214  1
