# generated using pymatgen
data_Ni3(PO4)4
_symmetry_space_group_name_H-M   'P 1'
_cell_length_a   7.67852426
_cell_length_b   7.80988189
_cell_length_c   10.35427899
_cell_angle_alpha   90.00000000
_cell_angle_beta   92.24054160
_cell_angle_gamma   90.00000000
_symmetry_Int_Tables_number   1
_chemical_formula_structural   Ni3(PO4)4
_chemical_formula_sum   'Ni6 P8 O32'
_cell_volume   620.45451020
_cell_formula_units_Z   2
loop_
 _symmetry_equiv_pos_site_id
 _symmetry_equiv_pos_as_xyz
  1  'x, y, z'
loop_
 _atom_site_type_symbol
 _atom_site_label
 _atom_site_symmetry_multiplicity
 _atom_site_fract_x
 _atom_site_fract_y
 _atom_site_fract_z
 _atom_site_occupancy
  O  O0  1  0.543270  0.367898  0.158740  1
  O  O1  1  0.956731  0.867899  0.091259  1
  O  O2  1  0.944832  0.844592  0.588426  1
  O  O3  1  0.869956  0.818382  0.351888  1
  O  O4  1  0.829997  0.443920  0.267268  1
  O  O5  1  0.886796  0.801727  0.855356  1
  O  O6  1  0.053355  0.153097  0.901861  1
  O  O7  1  0.046526  0.147180  0.414908  1
  O  O8  1  0.103420  0.200894  0.650609  1
  O  O9  1  0.154438  0.583497  0.733354  1
  O  O10  1  0.131752  0.186305  0.147529  1
  O  O11  1  0.159327  0.549584  0.224368  1
  O  O12  1  0.241414  0.884432  0.762061  1
  O  O13  1  0.264569  0.364272  0.958236  1
  O  O14  1  0.235430  0.864271  0.291764  1
  O  O15  1  0.258587  0.384432  0.487939  1
  O  O16  1  0.345562  0.083497  0.516645  1
  O  O17  1  0.396579  0.700894  0.599392  1
  O  O18  1  0.340674  0.049584  0.025632  1
  O  O19  1  0.774012  0.141673  0.217288  1
  O  O20  1  0.453474  0.647180  0.835092  1
  O  O21  1  0.446645  0.653096  0.348139  1
  O  O22  1  0.555169  0.344593  0.661574  1
  O  O23  1  0.853524  0.421177  0.761845  1
  O  O24  1  0.630045  0.318382  0.898112  1
  O  O25  1  0.670002  0.943921  0.982732  1
  O  O26  1  0.613203  0.301727  0.394644  1
  O  O27  1  0.646476  0.921177  0.488155  1
  O  O28  1  0.744537  0.607884  0.512838  1
  O  O29  1  0.755462  0.107884  0.737162  1
  O  O30  1  0.725989  0.641673  0.032713  1
  O  O31  1  0.368247  0.686304  0.102471  1
  P  P32  1  0.198431  0.186242  0.009562  1
  P  P33  1  0.313506  0.705881  0.735589  1
  P  P34  1  0.301569  0.686243  0.240438  1
  P  P35  1  0.698148  0.292631  0.761172  1
  P  P36  1  0.681983  0.306224  0.256832  1
  P  P37  1  0.818018  0.806223  0.993168  1
  P  P38  1  0.186493  0.205881  0.514411  1
  P  P39  1  0.801853  0.792631  0.488828  1
  Ni  Ni40  1  1.001093  0.002206  0.254734  1
  Ni  Ni41  1  -0.002242  0.986585  0.745936  1
  Ni  Ni42  1  0.502243  0.486586  0.504064  1
  Ni  Ni43  1  0.498907  0.502207  0.995266  1
  Ni  Ni44  1  0.400761  0.865162  0.450453  1
  Ni  Ni45  1  0.099238  0.365162  0.799547  1
