# generated using pymatgen
data_Li6Cu9(PO4)8
_symmetry_space_group_name_H-M   'P 1'
_cell_length_a   9.06986906
_cell_length_b   8.91962047
_cell_length_c   8.72810190
_cell_angle_alpha   104.56944359
_cell_angle_beta   99.19540953
_cell_angle_gamma   111.29392513
_symmetry_Int_Tables_number   1
_chemical_formula_structural   Li6Cu9(PO4)8
_chemical_formula_sum   'Li6 Cu9 P8 O32'
_cell_volume   611.54596720
_cell_formula_units_Z   1
loop_
 _symmetry_equiv_pos_site_id
 _symmetry_equiv_pos_as_xyz
  1  'x, y, z'
loop_
 _atom_site_type_symbol
 _atom_site_label
 _atom_site_symmetry_multiplicity
 _atom_site_fract_x
 _atom_site_fract_y
 _atom_site_fract_z
 _atom_site_occupancy
  Li  Li0  1  0.024426  0.909339  0.646461  1
  Li  Li1  1  0.975574  0.090661  0.353539  1
  Li  Li2  1  0.733986  0.275681  0.974561  1
  Li  Li3  1  0.643372  0.671136  0.679405  1
  Li  Li4  1  0.356628  0.328864  0.320595  1
  Li  Li5  1  0.266014  0.724319  0.025439  1
  O  O6  1  0.920138  0.789288  0.792476  1
  O  O7  1  0.684427  0.183875  0.720710  1
  O  O8  1  0.877584  0.045191  0.681166  1
  O  O9  1  0.593865  0.826421  0.842905  1
  O  O10  1  0.876741  0.744377  0.416250  1
  O  O11  1  0.762627  0.434696  0.412181  1
  O  O12  1  0.661834  0.066806  0.105474  1
  O  O13  1  0.737124  0.089420  0.433753  1
  O  O14  1  0.979711  0.522964  0.720284  1
  O  O15  1  0.122416  0.954809  0.318834  1
  O  O16  1  0.016558  0.676750  0.011823  1
  O  O17  1  0.020289  0.477036  0.279716  1
  O  O18  1  0.262876  0.910580  0.566247  1
  O  O19  1  0.338166  0.933194  0.894526  1
  O  O20  1  0.237373  0.565304  0.587819  1
  O  O21  1  0.123259  0.255623  0.583750  1
  O  O22  1  0.703711  0.521133  0.153076  1
  O  O23  1  0.315573  0.816125  0.279290  1
  O  O24  1  0.296289  0.478867  0.846924  1
  O  O25  1  0.173381  0.109627  0.909185  1
  O  O26  1  0.276798  0.475776  0.183832  1
  O  O27  1  0.079862  0.210712  0.207524  1
  O  O28  1  0.567856  0.873129  0.553627  1
  O  O29  1  0.429549  0.430112  0.607253  1
  O  O30  1  0.466671  0.251293  0.905296  1
  O  O31  1  0.533329  0.748707  0.094704  1
  O  O32  1  0.570451  0.569888  0.392747  1
  O  O33  1  0.432144  0.126871  0.446373  1
  O  O34  1  0.406135  0.173579  0.157095  1
  O  O35  1  0.723202  0.524224  0.816168  1
  O  O36  1  0.826619  0.890373  0.090815  1
  O  O37  1  0.983442  0.323250  0.988177  1
  P  P38  1  0.280647  0.947408  0.404816  1
  P  P39  1  0.090585  0.375333  0.166851  1
  P  P40  1  0.273447  0.433413  0.654187  1
  P  P41  1  0.348679  0.115963  0.965859  1
  P  P42  1  0.651321  0.884037  0.034141  1
  P  P43  1  0.726553  0.566587  0.345813  1
  P  P44  1  0.909415  0.624667  0.833149  1
  P  P45  1  0.719353  0.052592  0.595184  1
  Cu  Cu46  1  0.937641  0.726984  0.204167  1
  Cu  Cu47  1  0.570910  0.123862  0.287415  1
  Cu  Cu48  1  0.558327  0.304715  0.659673  1
  Cu  Cu49  1  0.500000  0.500000  0.000000  1
  Cu  Cu50  1  0.441673  0.695285  0.340327  1
  Cu  Cu51  1  0.000000  0.000000  0.000000  1
  Cu  Cu52  1  0.429090  0.876138  0.712585  1
  Cu  Cu53  1  0.062359  0.273016  0.795833  1
  Cu  Cu54  1  0.000000  0.500000  0.500000  1
