# generated using pymatgen
data_Bi(PO3)4
_symmetry_space_group_name_H-M   'P 1'
_cell_length_a   5.27097639
_cell_length_b   11.05941986
_cell_length_c   11.05941987
_cell_angle_alpha   64.97421045
_cell_angle_beta   106.56290918
_cell_angle_gamma   106.56290915
_symmetry_Int_Tables_number   1
_chemical_formula_structural   Bi(PO3)4
_chemical_formula_sum   'Bi2 P8 O24'
_cell_volume   549.80036962
_cell_formula_units_Z   2
loop_
 _symmetry_equiv_pos_site_id
 _symmetry_equiv_pos_as_xyz
  1  'x, y, z'
loop_
 _atom_site_type_symbol
 _atom_site_label
 _atom_site_symmetry_multiplicity
 _atom_site_fract_x
 _atom_site_fract_y
 _atom_site_fract_z
 _atom_site_occupancy
  O  O0  1  0.595365  0.302670  0.541452  1
  O  O1  1  0.751120  0.329187  0.045949  1
  O  O2  1  0.248880  0.670813  0.954051  1
  O  O3  1  0.248880  0.954051  0.670813  1
  O  O4  1  0.000000  0.269303  0.730697  1
  O  O5  1  0.000000  0.730697  0.269303  1
  O  O6  1  0.017671  0.254580  0.508699  1
  O  O7  1  0.017671  0.508699  0.254580  1
  O  O8  1  0.249516  0.317077  0.926312  1
  O  O9  1  0.249516  0.926312  0.317077  1
  O  O10  1  0.637670  0.855913  0.855913  1
  O  O11  1  0.404635  0.458548  0.697330  1
  O  O12  1  0.404635  0.697330  0.458548  1
  O  O13  1  0.583667  0.615001  0.867507  1
  O  O14  1  0.583667  0.867507  0.615001  1
  O  O15  1  0.982329  0.745420  0.491301  1
  O  O16  1  0.416333  0.384999  0.132493  1
  O  O17  1  0.416333  0.132493  0.384999  1
  O  O18  1  0.595365  0.541452  0.302670  1
  O  O19  1  0.362330  0.144087  0.144087  1
  O  O20  1  0.750484  0.073688  0.682923  1
  O  O21  1  0.750484  0.682923  0.073688  1
  O  O22  1  0.982329  0.491301  0.745420  1
  O  O23  1  0.751120  0.045949  0.329187  1
  P  P24  1  0.466634  0.304465  0.062413  1
  P  P25  1  0.835660  0.232364  0.600847  1
  P  P26  1  0.164340  0.399153  0.767636  1
  P  P27  1  0.164340  0.767636  0.399153  1
  P  P28  1  0.533366  0.695535  0.937587  1
  P  P29  1  0.835660  0.600847  0.232364  1
  P  P30  1  0.466634  0.062413  0.304465  1
  P  P31  1  0.533366  0.937587  0.695535  1
  Bi  Bi32  1  0.710489  0.657818  0.657818  1
  Bi  Bi33  1  0.289511  0.342182  0.342182  1
