# generated using pymatgen
data_LiCo3(P3O10)2
_symmetry_space_group_name_H-M   'P 1'
_cell_length_a   8.34854699
_cell_length_b   8.34854699
_cell_length_c   12.21235518
_cell_angle_alpha   90.00000000
_cell_angle_beta   90.00000000
_cell_angle_gamma   74.97594301
_symmetry_Int_Tables_number   1
_chemical_formula_structural   LiCo3(P3O10)2
_chemical_formula_sum   'Li2 Co6 P12 O40'
_cell_volume   822.08381077
_cell_formula_units_Z   2
loop_
 _symmetry_equiv_pos_site_id
 _symmetry_equiv_pos_as_xyz
  1  'x, y, z'
loop_
 _atom_site_type_symbol
 _atom_site_label
 _atom_site_symmetry_multiplicity
 _atom_site_fract_x
 _atom_site_fract_y
 _atom_site_fract_z
 _atom_site_occupancy
  Li  Li0  1  0.412418  0.587583  0.500000  1
  Li  Li1  1  0.587582  0.412418  0.000000  1
  O  O2  1  0.524980  0.772515  0.198339  1
  O  O3  1  0.643553  0.030756  0.557774  1
  O  O4  1  0.728660  0.259529  0.107200  1
  O  O5  1  0.740471  0.271340  0.892800  1
  O  O6  1  0.969243  0.356447  0.442227  1
  O  O7  1  0.790320  0.158719  0.696053  1
  O  O8  1  0.158719  0.790319  0.803948  1
  O  O9  1  0.209680  0.841280  0.196053  1
  O  O10  1  0.356447  0.969243  0.057774  1
  O  O11  1  0.030757  0.643553  0.942227  1
  O  O12  1  0.259529  0.728660  0.392800  1
  O  O13  1  0.271340  0.740471  0.607199  1
  O  O14  1  0.060156  0.344027  0.241014  1
  O  O15  1  0.655973  0.939843  0.758987  1
  O  O16  1  0.733376  0.996231  0.204038  1
  O  O17  1  0.003768  0.266625  0.795962  1
  O  O18  1  0.461706  0.724751  0.770875  1
  O  O19  1  0.275249  0.538293  0.229125  1
  O  O20  1  0.841281  0.209680  0.303947  1
  O  O21  1  0.227486  0.475020  0.801661  1
  O  O22  1  0.155237  0.315964  0.605925  1
  O  O23  1  0.684036  0.844763  0.394075  1
  O  O24  1  0.076018  0.164052  0.026187  1
  O  O25  1  0.835949  0.923982  0.973813  1
  O  O26  1  0.344026  0.060156  0.258987  1
  O  O27  1  0.280374  0.321014  0.417976  1
  O  O28  1  0.321015  0.280375  0.082024  1
  O  O29  1  0.719624  0.678986  0.917976  1
  O  O30  1  0.923982  0.835948  0.526187  1
  O  O31  1  0.164052  0.076018  0.473813  1
  O  O32  1  0.844764  0.684036  0.105925  1
  O  O33  1  0.315963  0.155236  0.894075  1
  O  O34  1  0.475020  0.227486  0.698339  1
  O  O35  1  0.772514  0.524981  0.301661  1
  O  O36  1  0.538294  0.275249  0.270875  1
  O  O37  1  0.724752  0.461707  0.729124  1
  O  O38  1  0.266624  0.003769  0.704038  1
  O  O39  1  0.996231  0.733375  0.295962  1
  O  O40  1  0.939844  0.655974  0.741014  1
  O  O41  1  0.678986  0.719625  0.582024  1
  P  P42  1  0.845603  0.736473  0.987172  1
  P  P43  1  0.263527  0.154397  0.012828  1
  P  P44  1  0.700086  0.180532  0.219990  1
  P  P45  1  0.736473  0.845602  0.512828  1
  P  P46  1  0.819468  0.299913  0.780010  1
  P  P47  1  0.911767  0.370885  0.315739  1
  P  P48  1  0.088233  0.629115  0.815739  1
  P  P49  1  0.370885  0.911768  0.184261  1
  P  P50  1  0.180532  0.700086  0.280011  1
  P  P51  1  0.299914  0.819467  0.719990  1
  P  P52  1  0.154397  0.263527  0.487173  1
  P  P53  1  0.629115  0.088232  0.684261  1
  Co  Co54  1  0.876139  0.123861  0.000000  1
  Co  Co55  1  0.760508  0.760508  0.250000  1
  Co  Co56  1  0.698099  0.698100  0.750000  1
  Co  Co57  1  0.301901  0.301901  0.250000  1
  Co  Co58  1  0.239493  0.239491  0.750000  1
  Co  Co59  1  0.123861  0.876139  0.500000  1
