# generated using pymatgen
data_Cu5P3O13
_symmetry_space_group_name_H-M   'P 1'
_cell_length_a   6.18595120
_cell_length_b   8.09309599
_cell_length_c   9.95559263
_cell_angle_alpha   92.14272103
_cell_angle_beta   90.24192964
_cell_angle_gamma   90.05829714
_symmetry_Int_Tables_number   1
_chemical_formula_structural   Cu5P3O13
_chemical_formula_sum   'Cu10 P6 O26'
_cell_volume   498.05850282
_cell_formula_units_Z   2
loop_
 _symmetry_equiv_pos_site_id
 _symmetry_equiv_pos_as_xyz
  1  'x, y, z'
loop_
 _atom_site_type_symbol
 _atom_site_label
 _atom_site_symmetry_multiplicity
 _atom_site_fract_x
 _atom_site_fract_y
 _atom_site_fract_z
 _atom_site_occupancy
  Cu  Cu0  1  0.500518  0.135754  0.777697  1
  Cu  Cu1  1  0.749056  0.228512  0.461178  1
  Cu  Cu2  1  0.250944  0.771488  0.538822  1
  Cu  Cu3  1  0.499482  0.864246  0.222303  1
  Cu  Cu4  1  0.996454  0.864390  0.220628  1
  Cu  Cu5  1  0.254820  0.849789  0.921744  1
  Cu  Cu6  1  0.753018  0.428607  0.887220  1
  Cu  Cu7  1  0.246982  0.571393  0.112780  1
  Cu  Cu8  1  0.003546  0.135610  0.779372  1
  Cu  Cu9  1  0.745180  0.150211  0.078256  1
  P  P10  1  0.249490  0.132282  0.504574  1
  P  P11  1  0.750510  0.867718  0.495426  1
  P  P12  1  0.748167  0.510744  0.229344  1
  P  P13  1  0.249652  0.158947  0.112103  1
  P  P14  1  0.750348  0.841053  0.887897  1
  P  P15  1  0.251833  0.489256  0.770656  1
  O  O16  1  0.250418  0.957645  0.429056  1
  O  O17  1  0.749970  0.910763  0.339082  1
  O  O18  1  0.954516  0.624531  0.218177  1
  O  O19  1  0.542742  0.901759  0.812881  1
  O  O20  1  0.747707  0.389768  0.102657  1
  O  O21  1  0.041936  0.097126  0.184755  1
  O  O22  1  0.945835  0.762612  0.530689  1
  O  O23  1  0.958064  0.902874  0.815245  1
  O  O24  1  0.252293  0.610232  0.897343  1
  O  O25  1  0.252984  0.089018  0.963673  1
  O  O26  1  0.751758  0.655424  0.887160  1
  O  O27  1  0.457581  0.375454  0.782158  1
  O  O28  1  0.251202  0.576375  0.639531  1
  O  O29  1  0.247317  0.806019  0.119316  1
  O  O30  1  0.542419  0.624546  0.217842  1
  O  O31  1  0.444360  0.238718  0.470686  1
  O  O32  1  0.749582  0.042355  0.570944  1
  O  O33  1  0.457258  0.098241  0.187119  1
  O  O34  1  0.250030  0.089237  0.660918  1
  O  O35  1  0.748798  0.423625  0.360469  1
  O  O36  1  0.555640  0.761282  0.529314  1
  O  O37  1  0.054165  0.237388  0.469311  1
  O  O38  1  0.747016  0.910982  0.036327  1
  O  O39  1  0.752683  0.193981  0.880684  1
  O  O40  1  0.045484  0.375469  0.781823  1
  O  O41  1  0.248242  0.344576  0.112840  1
