# generated using pymatgen
data_LiBi3(PO5)2
_symmetry_space_group_name_H-M   'P 1'
_cell_length_a   6.75900754
_cell_length_b   7.32070763
_cell_length_c   5.62510417
_cell_angle_alpha   62.77648455
_cell_angle_beta   100.24801937
_cell_angle_gamma   113.69998272
_symmetry_Int_Tables_number   1
_chemical_formula_structural   LiBi3(PO5)2
_chemical_formula_sum   'Li1 Bi3 P2 O10'
_cell_volume   226.62295714
_cell_formula_units_Z   1
loop_
 _symmetry_equiv_pos_site_id
 _symmetry_equiv_pos_as_xyz
  1  'x, y, z'
loop_
 _atom_site_type_symbol
 _atom_site_label
 _atom_site_symmetry_multiplicity
 _atom_site_fract_x
 _atom_site_fract_y
 _atom_site_fract_z
 _atom_site_occupancy
  Li  Li0  1  0.492767  0.912629  0.871298  1
  Bi  Bi1  1  0.813402  0.250401  0.329326  1
  Bi  Bi2  1  0.001739  1.001571  0.019080  1
  Bi  Bi3  1  0.604192  0.655842  0.588454  1
  P  P4  1  0.069305  0.590042  0.662924  1
  P  P5  1  0.382219  0.328114  0.298847  1
  O  O6  1  0.044668  0.355183  0.706558  1
  O  O7  1  0.752849  0.937343  0.718149  1
  O  O8  1  0.414562  0.569360  0.230869  1
  O  O9  1  0.927498  0.665642  0.407746  1
  O  O10  1  0.309609  0.744931  0.613792  1
  O  O11  1  0.968268  0.585950  0.890995  1
  O  O12  1  0.481825  0.318049  0.076602  1
  O  O13  1  0.133582  0.186611  0.315697  1
  O  O14  1  0.495446  0.229038  0.566826  1
  O  O15  1  0.718489  0.981394  0.187137  1
