# generated using pymatgen
data_LiFeP2O7
_symmetry_space_group_name_H-M   'P 1'
_cell_length_a   5.08943690
_cell_length_b   6.79158958
_cell_length_c   8.29830875
_cell_angle_alpha   68.60609946
_cell_angle_beta   87.24095433
_cell_angle_gamma   87.35264167
_symmetry_Int_Tables_number   1
_chemical_formula_structural   LiFeP2O7
_chemical_formula_sum   'Li2 Fe2 P4 O14'
_cell_volume   266.63366502
_cell_formula_units_Z   2
loop_
 _symmetry_equiv_pos_site_id
 _symmetry_equiv_pos_as_xyz
  1  'x, y, z'
loop_
 _atom_site_type_symbol
 _atom_site_label
 _atom_site_symmetry_multiplicity
 _atom_site_fract_x
 _atom_site_fract_y
 _atom_site_fract_z
 _atom_site_occupancy
  Li  Li0  1  0.280058  0.821658  0.996941  1
  Li  Li1  1  0.790403  0.179246  0.439583  1
  O  O2  1  0.288169  0.351507  0.159352  1
  O  O3  1  0.904158  0.355422  0.761957  1
  O  O4  1  0.115296  0.660145  0.222352  1
  O  O5  1  0.059659  0.933140  0.788924  1
  O  O6  1  0.152729  0.297643  0.471064  1
  O  O7  1  0.569833  0.497281  0.327471  1
  O  O8  1  0.267894  0.118734  0.987838  1
  O  O9  1  0.815361  0.708750  0.516858  1
  O  O10  1  0.442450  0.966998  0.291060  1
  O  O11  1  0.954582  0.064259  0.248006  1
  O  O12  1  0.588449  0.053873  0.696011  1
  O  O13  1  0.680408  0.856765  0.017582  1
  O  O14  1  0.710771  0.660472  0.827872  1
  O  O15  1  0.435616  0.480563  0.685719  1
  P  P16  1  0.281876  0.456457  0.306753  1
  P  P17  1  0.718265  0.545524  0.688246  1
  P  P18  1  0.236723  0.113435  0.172459  1
  P  P19  1  0.765765  0.890902  0.829653  1
  Fe  Fe20  1  0.756860  0.793339  0.270186  1
  Fe  Fe21  1  0.240967  0.226859  0.727899  1
