# generated using pymatgen
data_Li3Cr(PO3)8
_symmetry_space_group_name_H-M   'P 1'
_cell_length_a   7.28669035
_cell_length_b   7.28669013
_cell_length_c   9.79529912
_cell_angle_alpha   70.11734499
_cell_angle_beta   81.32217612
_cell_angle_gamma   109.87676724
_symmetry_Int_Tables_number   1
_chemical_formula_structural   Li3Cr(PO3)8
_chemical_formula_sum   'Li3 Cr1 P8 O24'
_cell_volume   438.56856260
_cell_formula_units_Z   1
loop_
 _symmetry_equiv_pos_site_id
 _symmetry_equiv_pos_as_xyz
  1  'x, y, z'
loop_
 _atom_site_type_symbol
 _atom_site_label
 _atom_site_symmetry_multiplicity
 _atom_site_fract_x
 _atom_site_fract_y
 _atom_site_fract_z
 _atom_site_occupancy
  Li  Li0  1  0.052184  0.802184  0.750000  1
  Li  Li1  1  0.486335  0.996999  0.507167  1
  Li  Li2  1  0.004166  0.993502  0.992833  1
  Cr  Cr3  1  0.947980  0.197980  0.250000  1
  P  P4  1  0.263604  0.729956  0.028523  1
  P  P5  1  0.686466  0.990875  0.809578  1
  P  P6  1  0.258479  0.292127  0.471477  1
  P  P7  1  0.303759  0.003858  0.203860  1
  P  P8  1  0.300453  0.496045  0.690422  1
  P  P9  1  0.752754  0.706167  0.518944  1
  P  P10  1  0.725111  0.271698  0.981056  1
  P  P11  1  0.707718  0.507619  0.296140  1
  O  O12  1  0.116568  0.048796  0.187929  1
  O  O13  1  0.919803  0.744912  0.590244  1
  O  O14  1  0.540053  0.547346  0.650736  1
  O  O15  1  0.156643  0.488173  0.097182  1
  O  O16  1  0.085356  0.253826  0.402818  1
  O  O17  1  0.733241  0.902653  0.410570  1
  O  O18  1  0.233071  0.444663  0.553476  1
  O  O19  1  0.466863  0.453069  0.331818  1
  O  O20  1  0.813223  0.143811  0.089430  1
  O  O21  1  0.814535  0.702446  0.150903  1
  O  O22  1  0.489714  0.205436  0.063605  1
  O  O23  1  0.287363  0.109390  0.578494  1
  O  O24  1  0.187884  0.865858  0.921506  1
  O  O25  1  0.353349  0.965437  0.349097  1
  O  O26  1  0.835156  0.510047  0.909756  1
  O  O27  1  0.276077  0.696140  0.680695  1
  O  O28  1  0.876836  0.956772  0.819305  1
  O  O29  1  0.645350  0.033774  0.659255  1
  O  O30  1  0.736726  0.304497  0.312071  1
  O  O31  1  0.193029  0.304605  0.840745  1
  O  O32  1  0.769041  0.553321  0.436395  1
  O  O33  1  0.698083  0.190789  0.849264  1
  O  O34  1  0.498138  0.786546  0.946524  1
  O  O35  1  0.284887  0.798680  0.168182  1
