# generated using pymatgen
data_Li6Mn9(PO4)8
_symmetry_space_group_name_H-M   'P 1'
_cell_length_a   9.32343883
_cell_length_b   8.91727247
_cell_length_c   9.14553512
_cell_angle_alpha   101.26728202
_cell_angle_beta   101.42820876
_cell_angle_gamma   111.29875469
_symmetry_Int_Tables_number   1
_chemical_formula_structural   Li6Mn9(PO4)8
_chemical_formula_sum   'Li6 Mn9 P8 O32'
_cell_volume   663.95453231
_cell_formula_units_Z   1
loop_
 _symmetry_equiv_pos_site_id
 _symmetry_equiv_pos_as_xyz
  1  'x, y, z'
loop_
 _atom_site_type_symbol
 _atom_site_label
 _atom_site_symmetry_multiplicity
 _atom_site_fract_x
 _atom_site_fract_y
 _atom_site_fract_z
 _atom_site_occupancy
  Li  Li0  1  0.028503  0.123034  0.361859  1
  Li  Li1  1  0.267084  0.767701  0.036565  1
  Li  Li2  1  0.359074  0.314417  0.309878  1
  Li  Li3  1  0.640926  0.685582  0.690121  1
  Li  Li4  1  0.732916  0.232300  0.963435  1
  Li  Li5  1  0.971497  0.876966  0.638141  1
  O  O6  1  0.329073  0.933902  0.900651  1
  O  O7  1  0.970966  0.308353  -0.000647  1
  O  O8  1  0.961205  0.497683  0.728376  1
  O  O9  1  0.670927  0.066098  0.099350  1
  O  O10  1  0.711443  0.067550  0.449873  1
  O  O11  1  0.880651  0.691805  0.434971  1
  O  O12  1  0.741368  0.383946  0.384714  1
  O  O13  1  0.655086  0.125682  0.719296  1
  O  O14  1  0.833796  0.891632  0.109029  1
  O  O15  1  0.117355  0.955355  0.313363  1
  O  O16  1  0.029033  0.691646  1.000648  1
  O  O17  1  0.038795  0.502317  0.271623  1
  O  O18  1  0.882644  0.044646  0.686636  1
  O  O19  1  0.288556  0.932450  0.550127  1
  O  O20  1  0.119349  0.308194  0.565029  1
  O  O21  1  0.258632  0.616054  0.615285  1
  O  O22  1  0.344913  0.874317  0.280704  1
  O  O23  1  0.166203  0.108368  0.890970  1
  O  O24  1  0.115325  0.248739  0.226017  1
  O  O25  1  0.292557  0.478324  0.835480  1
  O  O26  1  0.265279  0.507338  0.151870  1
  O  O27  1  0.884676  0.751262  0.773983  1
  O  O28  1  0.436004  0.458103  0.630102  1
  O  O29  1  0.587431  0.833608  0.564618  1
  O  O30  1  0.456096  0.238389  0.885060  1
  O  O31  1  0.543904  0.761611  0.114940  1
  O  O32  1  0.412569  0.166393  0.435382  1
  O  O33  1  0.563997  0.541898  0.369899  1
  O  O34  1  0.397290  0.183372  0.131661  1
  O  O35  1  0.734720  0.492661  0.848131  1
  O  O36  1  0.707442  0.521675  0.164520  1
  O  O37  1  0.602710  0.816628  0.868339  1
  P  P38  1  0.711301  0.021350  0.602483  1
  P  P39  1  0.901206  0.605534  0.835658  1
  P  P40  1  0.718329  0.535241  0.340760  1
  P  P41  1  0.662391  0.886448  0.047989  1
  P  P42  1  0.337610  0.113553  0.952011  1
  P  P43  1  0.281671  0.464759  0.659239  1
  P  P44  1  0.098793  0.394465  0.164341  1
  P  P45  1  0.288698  0.978649  0.397516  1
  Mn  Mn46  1  1.000000  0.500000  0.500000  1
  Mn  Mn47  1  0.046429  0.301250  0.796691  1
  Mn  Mn48  1  0.427512  0.870963  0.718429  1
  Mn  Mn49  1  0.000000  0.000000  0.000000  1
  Mn  Mn50  1  0.466336  0.717556  0.320606  1
  Mn  Mn51  1  0.500000  0.500000  0.000000  1
  Mn  Mn52  1  0.533663  0.282445  0.679394  1
  Mn  Mn53  1  0.572488  0.129038  0.281571  1
  Mn  Mn54  1  0.953570  0.698750  0.203308  1
