# generated using pymatgen
data_LiVPO4
_symmetry_space_group_name_H-M   'P 1'
_cell_length_a   5.07128224
_cell_length_b   5.07128225
_cell_length_c   6.30154924
_cell_angle_alpha   90.00000000
_cell_angle_beta   90.00000000
_cell_angle_gamma   66.50206673
_symmetry_Int_Tables_number   1
_chemical_formula_structural   LiVPO4
_chemical_formula_sum   'Li2 V2 P2 O8'
_cell_volume   148.62350369
_cell_formula_units_Z   2
loop_
 _symmetry_equiv_pos_site_id
 _symmetry_equiv_pos_as_xyz
  1  'x, y, z'
loop_
 _atom_site_type_symbol
 _atom_site_label
 _atom_site_symmetry_multiplicity
 _atom_site_fract_x
 _atom_site_fract_y
 _atom_site_fract_z
 _atom_site_occupancy
  Li  Li0  1  0.333576  0.333574  0.750001  1
  Li  Li1  1  0.666424  0.666426  0.250001  1
  O  O2  1  0.242456  0.691955  0.250001  1
  O  O3  1  0.251999  0.251999  0.452059  1
  O  O4  1  0.251999  0.251999  0.047942  1
  O  O5  1  0.308045  0.757544  0.750001  1
  O  O6  1  0.691955  0.242456  0.250001  1
  O  O7  1  0.748001  0.748001  0.952059  1
  O  O8  1  0.748001  0.748001  0.547942  1
  O  O9  1  0.757544  0.308045  0.750001  1
  P  P10  1  0.352725  0.352723  0.250001  1
  P  P11  1  0.647275  0.647277  0.750001  1
  V  V12  1  0.000000  0.000000  0.000000  1
  V  V13  1  0.000000  0.000000  0.500000  1
