# generated using pymatgen
data_LiV2P5O16
_symmetry_space_group_name_H-M   'P 1'
_cell_length_a   18.87305746
_cell_length_b   6.80589113
_cell_length_c   5.08236564
_cell_angle_alpha   90.00000000
_cell_angle_beta   90.15953236
_cell_angle_gamma   90.00000000
_symmetry_Int_Tables_number   1
_chemical_formula_structural   LiV2P5O16
_chemical_formula_sum   'Li2 V4 P10 O32'
_cell_volume   652.81704063
_cell_formula_units_Z   2
loop_
 _symmetry_equiv_pos_site_id
 _symmetry_equiv_pos_as_xyz
  1  'x, y, z'
loop_
 _atom_site_type_symbol
 _atom_site_label
 _atom_site_symmetry_multiplicity
 _atom_site_fract_x
 _atom_site_fract_y
 _atom_site_fract_z
 _atom_site_occupancy
  Li  Li0  1  0.470406  0.353440  0.730000  1
  Li  Li1  1  0.970406  0.646560  0.729999  1
  O  O2  1  0.430436  0.079146  0.936993  1
  O  O3  1  0.077964  0.633357  0.926908  1
  O  O4  1  0.069406  0.052674  0.049317  1
  O  O5  1  0.118907  0.571835  0.456759  1
  O  O6  1  0.110071  0.981080  0.579890  1
  O  O7  1  0.135636  0.303968  0.794291  1
  O  O8  1  0.196997  0.859041  0.154697  1
  O  O9  1  0.211484  0.586161  0.818025  1
  O  O10  1  0.289003  0.597917  0.218848  1
  O  O11  1  0.305321  0.847679  0.850631  1
  O  O12  1  0.358545  0.295198  0.222765  1
  O  O13  1  0.389490  0.960949  0.394823  1
  O  O14  1  0.391178  0.556716  0.538131  1
  O  O15  1  0.416529  0.607872  0.041969  1
  O  O16  1  0.009333  0.227653  0.672128  1
  O  O17  1  0.485807  0.222913  0.357690  1
  O  O18  1  0.509333  0.772347  0.672129  1
  O  O19  1  0.577964  0.366643  0.926907  1
  O  O20  1  0.569406  0.947326  0.049318  1
  O  O21  1  0.618907  0.428165  0.456759  1
  O  O22  1  0.610071  0.018920  0.579889  1
  O  O23  1  0.635636  0.696032  0.794292  1
  O  O24  1  0.985807  0.777087  0.357691  1
  O  O25  1  0.711484  0.413839  0.818026  1
  O  O26  1  0.789003  0.402083  0.218849  1
  O  O27  1  0.805322  0.152321  0.850630  1
  O  O28  1  0.858545  0.704802  0.222764  1
  O  O29  1  0.889491  0.039051  0.394824  1
  O  O30  1  0.891179  0.443285  0.538132  1
  O  O31  1  0.916529  0.392128  0.041970  1
  O  O32  1  0.930435  0.920854  0.936992  1
  O  O33  1  0.696996  0.140959  0.154696  1
  P  P34  1  0.077346  0.127566  0.768337  1
  P  P35  1  0.130968  0.532602  0.745403  1
  P  P36  1  0.250506  0.740204  0.008947  1
  P  P37  1  0.369269  0.525489  0.254087  1
  P  P38  1  0.420320  0.125735  0.229481  1
  P  P39  1  0.577347  0.872434  0.768336  1
  P  P40  1  0.630968  0.467398  0.745402  1
  P  P41  1  0.920320  0.874265  0.229480  1
  P  P42  1  0.869269  0.474511  0.254086  1
  P  P43  1  0.750507  0.259796  0.008946  1
  V  V44  1  0.092953  0.819346  0.254986  1
  V  V45  1  0.407097  0.816640  0.736194  1
  V  V46  1  0.592953  0.180654  0.254985  1
  V  V47  1  0.907097  0.183360  0.736193  1
