# generated using pymatgen
data_LiBi(PO3)4
_symmetry_space_group_name_H-M   'P 1'
_cell_length_a   5.30674016
_cell_length_b   10.72722226
_cell_length_c   10.72722225
_cell_angle_alpha   68.78050859
_cell_angle_beta   102.46442576
_cell_angle_gamma   102.46442572
_symmetry_Int_Tables_number   1
_chemical_formula_structural   LiBi(PO3)4
_chemical_formula_sum   'Li2 Bi2 P8 O24'
_cell_volume   549.44550310
_cell_formula_units_Z   2
loop_
 _symmetry_equiv_pos_site_id
 _symmetry_equiv_pos_as_xyz
  1  'x, y, z'
loop_
 _atom_site_type_symbol
 _atom_site_label
 _atom_site_symmetry_multiplicity
 _atom_site_fract_x
 _atom_site_fract_y
 _atom_site_fract_z
 _atom_site_occupancy
  Li  Li0  1  0.000000  0.000000  0.500000  1
  Li  Li1  1  0.000000  0.500000  0.000000  1
  O  O2  1  0.348503  0.130051  0.378192  1
  O  O3  1  0.742492  0.338671  0.050558  1
  O  O4  1  0.000000  0.266747  0.733253  1
  O  O5  1  0.000000  0.733253  0.266747  1
  O  O6  1  0.257508  0.661329  0.949442  1
  O  O7  1  0.257508  0.949442  0.661329  1
  O  O8  1  0.010665  0.217509  0.517686  1
  O  O9  1  0.010665  0.517686  0.217509  1
  O  O10  1  0.276048  0.304893  0.925106  1
  O  O11  1  0.276048  0.925106  0.304893  1
  O  O12  1  0.377323  0.456803  0.689083  1
  O  O13  1  0.377323  0.689083  0.456803  1
  O  O14  1  0.611275  0.858338  0.858338  1
  O  O15  1  0.651497  0.621808  0.869949  1
  O  O16  1  0.989335  0.782491  0.482314  1
  O  O17  1  0.348503  0.378192  0.130051  1
  O  O18  1  0.651497  0.869949  0.621808  1
  O  O19  1  0.388725  0.141662  0.141662  1
  O  O20  1  0.622677  0.310917  0.543197  1
  O  O21  1  0.622677  0.543197  0.310917  1
  O  O22  1  0.723952  0.074894  0.695107  1
  O  O23  1  0.723952  0.695107  0.074894  1
  O  O24  1  0.989335  0.482314  0.782491  1
  O  O25  1  0.742492  0.050558  0.338671  1
  P  P26  1  0.462407  0.301369  0.064648  1
  P  P27  1  0.835535  0.607975  0.223763  1
  P  P28  1  0.164465  0.392025  0.776237  1
  P  P29  1  0.164465  0.776237  0.392025  1
  P  P30  1  0.537593  0.698631  0.935352  1
  P  P31  1  0.835535  0.223763  0.607975  1
  P  P32  1  0.462407  0.064648  0.301369  1
  P  P33  1  0.537593  0.935352  0.698631  1
  Bi  Bi34  1  0.689970  0.648552  0.648552  1
  Bi  Bi35  1  0.310030  0.351448  0.351448  1
