# generated using pymatgen
data_LiNb2(PO4)3
_symmetry_space_group_name_H-M   'P 1'
_cell_length_a   8.86614297
_cell_length_b   8.97965686
_cell_length_c   12.39199927
_cell_angle_alpha   90.00000000
_cell_angle_beta   90.87305269
_cell_angle_gamma   90.00000000
_symmetry_Int_Tables_number   1
_chemical_formula_structural   LiNb2(PO4)3
_chemical_formula_sum   'Li4 Nb8 P12 O48'
_cell_volume   986.47351583
_cell_formula_units_Z   4
loop_
 _symmetry_equiv_pos_site_id
 _symmetry_equiv_pos_as_xyz
  1  'x, y, z'
loop_
 _atom_site_type_symbol
 _atom_site_label
 _atom_site_symmetry_multiplicity
 _atom_site_fract_x
 _atom_site_fract_y
 _atom_site_fract_z
 _atom_site_occupancy
  Li  Li0  1  0.707355  0.775182  0.676584  1
  Li  Li1  1  0.292645  0.224818  0.323416  1
  Li  Li2  1  0.792645  0.275182  0.823416  1
  Li  Li3  1  0.207355  0.724818  0.176584  1
  Nb  Nb4  1  0.249635  0.970579  0.619726  1
  Nb  Nb5  1  0.755173  0.456911  0.612611  1
  Nb  Nb6  1  0.744827  0.956911  0.887389  1
  Nb  Nb7  1  0.750365  0.029421  0.380274  1
  Nb  Nb8  1  0.749635  0.529421  0.119726  1
  Nb  Nb9  1  0.244827  0.543089  0.387389  1
  Nb  Nb10  1  0.255173  0.043089  0.112611  1
  Nb  Nb11  1  0.250365  0.470579  0.880274  1
  P  P12  1  0.112341  0.398871  0.144575  1
  P  P13  1  0.900440  0.880605  0.146429  1
  P  P14  1  0.965048  0.749606  0.508741  1
  P  P15  1  0.534952  0.249606  0.991259  1
  P  P16  1  0.387659  0.898871  0.355425  1
  P  P17  1  0.887659  0.601129  0.855425  1
  P  P18  1  0.400440  0.619395  0.646429  1
  P  P19  1  0.034952  0.250394  0.491259  1
  P  P20  1  0.612341  0.101129  0.644575  1
  P  P21  1  0.465048  0.750394  0.008741  1
  P  P22  1  0.599560  0.380605  0.353571  1
  P  P23  1  0.099560  0.119395  0.853571  1
  O  O24  1  0.832239  0.480019  0.773166  1
  O  O25  1  0.427253  0.331440  0.912401  1
  O  O26  1  0.817741  0.977942  0.229360  1
  O  O27  1  0.120753  0.142359  0.565955  1
  O  O28  1  0.439526  0.104286  0.641787  1
  O  O29  1  0.072747  0.831440  0.587599  1
  O  O30  1  0.346840  0.832408  0.077797  1
  O  O31  1  0.323295  0.745307  0.319753  1
  O  O32  1  0.560474  0.895714  0.358213  1
  O  O33  1  0.552401  0.861572  0.938438  1
  O  O34  1  0.823033  0.557231  0.965560  1
  O  O35  1  0.667761  0.980019  0.726834  1
  O  O36  1  0.317741  0.522058  0.729360  1
  O  O37  1  0.676705  0.254693  0.680247  1
  O  O38  1  0.847414  0.926144  0.032441  1
  O  O39  1  0.379247  0.642359  0.934045  1
  O  O40  1  0.052401  0.638428  0.438438  1
  O  O41  1  0.372906  0.787289  0.666612  1
  O  O42  1  0.927253  0.168560  0.412401  1
  O  O43  1  0.332239  0.019981  0.273166  1
  O  O44  1  0.176967  0.442769  0.034440  1
  O  O45  1  0.682259  0.477942  0.270640  1
  O  O46  1  0.323033  0.942769  0.465560  1
  O  O47  1  0.073149  0.904902  0.157643  1
  O  O48  1  0.152586  0.073856  0.967559  1
  O  O49  1  0.620753  0.357641  0.065955  1
  O  O50  1  0.447599  0.138428  0.061562  1
  O  O51  1  0.127094  0.287289  0.833388  1
  O  O52  1  0.653161  0.167592  0.922203  1
  O  O53  1  0.167761  0.519981  0.226834  1
  O  O54  1  0.846839  0.667592  0.577797  1
  O  O55  1  0.176705  0.245307  0.180247  1
  O  O56  1  0.872906  0.712711  0.166612  1
  O  O57  1  0.060474  0.604286  0.858213  1
  O  O58  1  0.939526  0.395714  0.141787  1
  O  O59  1  0.926851  0.095098  0.842357  1
  O  O60  1  0.676967  0.057231  0.534440  1
  O  O61  1  0.153161  0.332408  0.422203  1
  O  O62  1  0.347414  0.573856  0.532441  1
  O  O63  1  0.573149  0.595098  0.657643  1
  O  O64  1  0.947599  0.361572  0.561562  1
  O  O65  1  0.426851  0.404902  0.342357  1
  O  O66  1  0.182259  0.022058  0.770640  1
  O  O67  1  0.627094  0.212711  0.333388  1
  O  O68  1  0.823295  0.754693  0.819753  1
  O  O69  1  0.652586  0.426144  0.467559  1
  O  O70  1  0.572747  0.668560  0.087599  1
  O  O71  1  0.879247  0.857641  0.434045  1
