# generated using pymatgen
data_LiCr(PO3)4
_symmetry_space_group_name_H-M   'P 1'
_cell_length_a   12.76210754
_cell_length_b   8.36864482
_cell_length_c   9.30664526
_cell_angle_alpha   90.00000000
_cell_angle_beta   90.00000000
_cell_angle_gamma   90.00000000
_symmetry_Int_Tables_number   1
_chemical_formula_structural   LiCr(PO3)4
_chemical_formula_sum   'Li4 Cr4 P16 O48'
_cell_volume   993.96409400
_cell_formula_units_Z   4
loop_
 _symmetry_equiv_pos_site_id
 _symmetry_equiv_pos_as_xyz
  1  'x, y, z'
loop_
 _atom_site_type_symbol
 _atom_site_label
 _atom_site_symmetry_multiplicity
 _atom_site_fract_x
 _atom_site_fract_y
 _atom_site_fract_z
 _atom_site_occupancy
  Li  Li0  1  0.000000  0.002099  0.750000  1
  Li  Li1  1  0.500000  0.502098  0.750000  1
  Li  Li2  1  0.500000  0.497902  0.250000  1
  Li  Li3  1  0.000000  0.997901  0.250000  1
  O  O4  1  0.374905  0.867028  0.879321  1
  O  O5  1  0.930032  0.464755  0.370084  1
  O  O6  1  0.930032  0.535245  0.870085  1
  O  O7  1  0.935899  0.808469  0.366750  1
  O  O8  1  0.064101  0.191531  0.633251  1
  O  O9  1  0.064101  0.808469  0.133251  1
  O  O10  1  0.069968  0.464755  0.129915  1
  O  O11  1  0.069968  0.535245  0.629915  1
  O  O12  1  0.103504  0.094215  0.375379  1
  O  O13  1  0.103504  0.905785  0.875379  1
  O  O14  1  0.125095  0.367028  0.879321  1
  O  O15  1  0.125095  0.632972  0.379321  1
  O  O16  1  0.179359  0.356747  0.464228  1
  O  O17  1  0.179359  0.643253  0.964228  1
  O  O18  1  0.242642  0.101893  0.575913  1
  O  O19  1  0.242642  0.898107  0.075913  1
  O  O20  1  0.257358  0.398106  0.075913  1
  O  O21  1  0.257358  0.601893  0.575913  1
  O  O22  1  0.320641  0.143253  0.964228  1
  O  O23  1  0.320641  0.856747  0.464228  1
  O  O24  1  0.374905  0.132972  0.379321  1
  O  O25  1  0.935899  0.191531  0.866749  1
  O  O26  1  0.396496  0.405784  0.875379  1
  O  O27  1  0.396496  0.594214  0.375379  1
  O  O28  1  0.430033  0.035244  0.629915  1
  O  O29  1  0.430033  0.964756  0.129915  1
  O  O30  1  0.435900  0.308468  0.133251  1
  O  O31  1  0.435900  0.691532  0.633251  1
  O  O32  1  0.564100  0.308468  0.366750  1
  O  O33  1  0.564100  0.691532  0.866749  1
  O  O34  1  0.569967  0.035244  0.870085  1
  O  O35  1  0.569967  0.964756  0.370084  1
  O  O36  1  0.603504  0.405784  0.624621  1
  O  O37  1  0.603504  0.594214  0.124620  1
  O  O38  1  0.625095  0.132972  0.120680  1
  O  O39  1  0.625095  0.867028  0.620679  1
  O  O40  1  0.679359  0.143253  0.535772  1
  O  O41  1  0.679359  0.856747  0.035772  1
  O  O42  1  0.742642  0.398106  0.424087  1
  O  O43  1  0.742642  0.601893  0.924087  1
  O  O44  1  0.757358  0.101893  0.924087  1
  O  O45  1  0.757358  0.898107  0.424087  1
  O  O46  1  0.820641  0.356747  0.035772  1
  O  O47  1  0.820641  0.643253  0.535772  1
  O  O48  1  0.874905  0.367028  0.620679  1
  O  O49  1  0.896497  0.905785  0.624621  1
  O  O50  1  0.896497  0.094215  0.124620  1
  O  O51  1  0.874905  0.632972  0.120680  1
  P  P52  1  0.849835  0.464356  0.489135  1
  P  P53  1  0.849835  0.535644  0.989134  1
  P  P54  1  0.650165  0.964356  0.489135  1
  P  P55  1  0.861697  0.180141  0.994540  1
  P  P56  1  0.138303  0.180141  0.505460  1
  P  P57  1  0.138303  0.819859  0.005460  1
  P  P58  1  0.150165  0.464356  0.010865  1
  P  P59  1  0.150165  0.535644  0.510866  1
  P  P60  1  0.349835  0.035644  0.510866  1
  P  P61  1  0.349835  0.964356  0.010865  1
  P  P62  1  0.361697  0.319860  0.005460  1
  P  P63  1  0.361697  0.680140  0.505460  1
  P  P64  1  0.638302  0.319860  0.494540  1
  P  P65  1  0.638302  0.680140  0.994540  1
  P  P66  1  0.650165  0.035644  0.989134  1
  P  P67  1  0.861697  0.819859  0.494540  1
  Cr  Cr68  1  0.500000  0.869047  0.750000  1
  Cr  Cr69  1  0.500000  0.130953  0.250000  1
  Cr  Cr70  1  0.000000  0.630952  0.250000  1
  Cr  Cr71  1  0.000000  0.369048  0.750000  1
