# generated using pymatgen
data_LiMn2(PO4)3
_symmetry_space_group_name_H-M   'P 1'
_cell_length_a   8.25956098
_cell_length_b   8.53474584
_cell_length_c   11.76774612
_cell_angle_alpha   90.00000000
_cell_angle_beta   90.01369432
_cell_angle_gamma   90.00000000
_symmetry_Int_Tables_number   1
_chemical_formula_structural   LiMn2(PO4)3
_chemical_formula_sum   'Li4 Mn8 P12 O48'
_cell_volume   829.54668919
_cell_formula_units_Z   4
loop_
 _symmetry_equiv_pos_site_id
 _symmetry_equiv_pos_as_xyz
  1  'x, y, z'
loop_
 _atom_site_type_symbol
 _atom_site_label
 _atom_site_symmetry_multiplicity
 _atom_site_fract_x
 _atom_site_fract_y
 _atom_site_fract_z
 _atom_site_occupancy
  Li  Li0  1  0.318649  0.290098  0.679487  1
  Li  Li1  1  0.426005  0.602371  0.196388  1
  Li  Li2  1  0.818650  0.209901  0.179487  1
  Li  Li3  1  0.926005  0.897628  0.696388  1
  O  O4  1  0.272661  0.554749  0.550127  1
  O  O5  1  0.935491  0.325021  0.605518  1
  O  O6  1  0.940032  0.122292  0.441214  1
  O  O7  1  0.931808  0.418551  0.179638  1
  O  O8  1  0.903682  0.637852  0.585813  1
  O  O9  1  0.837853  0.717922  0.182259  1
  O  O10  1  0.858878  0.572447  0.976838  1
  O  O11  1  0.865252  0.000569  0.243396  1
  O  O12  1  0.068620  0.884071  0.107613  1
  O  O13  1  0.064736  0.673021  0.394015  1
  O  O14  1  0.057165  0.873598  0.560412  1
  O  O15  1  0.066455  0.572842  0.818665  1
  O  O16  1  0.093460  0.364360  0.414563  1
  O  O17  1  0.116261  0.203141  0.158320  1
  O  O18  1  0.139663  0.432168  0.022101  1
  O  O19  1  0.127219  0.001139  0.752602  1
  O  O20  1  0.171637  0.276565  0.816187  1
  O  O21  1  0.184445  0.175596  0.564290  1
  O  O22  1  0.227982  0.479083  0.222775  1
  O  O23  1  0.229103  0.056153  0.952077  1
  O  O24  1  0.273562  0.980592  0.274907  1
  O  O25  1  0.934084  0.114590  0.893501  1
  O  O26  1  0.314584  0.674829  0.935709  1
  O  O27  1  0.337854  0.782078  0.682258  1
  O  O28  1  0.358877  0.927552  0.476838  1
  O  O29  1  0.376968  0.704922  0.337040  1
  O  O30  1  0.365252  0.499432  0.743396  1
  O  O31  1  0.403682  0.862148  0.085813  1
  O  O32  1  0.435492  0.174979  0.105518  1
  O  O33  1  0.434084  0.385410  0.393501  1
  O  O34  1  0.431808  0.081449  0.679638  1
  O  O35  1  0.440032  0.377708  0.941214  1
  O  O36  1  0.557165  0.626401  0.060412  1
  O  O37  1  0.566455  0.927158  0.318665  1
  O  O38  1  0.568620  0.615928  0.607613  1
  O  O39  1  0.564737  0.826979  0.894015  1
  O  O40  1  0.593459  0.135640  0.914563  1
  O  O41  1  0.627218  0.498861  0.252602  1
  O  O42  1  0.616261  0.296859  0.658320  1
  O  O43  1  0.639664  0.067832  0.522101  1
  O  O44  1  0.671638  0.223436  0.316187  1
  O  O45  1  0.684444  0.324404  0.064289  1
  O  O46  1  0.729103  0.443847  0.452076  1
  O  O47  1  0.727982  0.020917  0.722775  1
  O  O48  1  0.772662  0.945250  0.050127  1
  O  O49  1  0.773561  0.519409  0.774907  1
  O  O50  1  0.814583  0.825170  0.435709  1
  O  O51  1  0.876969  0.795079  0.837040  1
  P  P52  1  0.964046  0.747253  0.489914  1
  P  P53  1  0.890092  0.612754  0.851846  1
  P  P54  1  0.890039  0.882859  0.143712  1
  P  P55  1  0.611434  0.115903  0.645567  1
  P  P56  1  0.613704  0.387786  0.357648  1
  P  P57  1  0.532205  0.250512  0.006330  1
  P  P58  1  0.464045  0.752748  0.989915  1
  P  P59  1  0.390038  0.617141  0.643712  1
  P  P60  1  0.032206  0.249489  0.506330  1
  P  P61  1  0.111435  0.384097  0.145567  1
  P  P62  1  0.390091  0.887247  0.351846  1
  P  P63  1  0.113703  0.112213  0.857647  1
  Mn  Mn64  1  0.253491  0.029909  0.112801  1
  Mn  Mn65  1  0.245189  0.528419  0.391478  1
  Mn  Mn66  1  0.253548  0.966637  0.613951  1
  Mn  Mn67  1  0.248310  0.472962  0.885249  1
  Mn  Mn68  1  0.753549  0.533362  0.113952  1
  Mn  Mn69  1  0.748310  0.027038  0.385249  1
  Mn  Mn70  1  0.753491  0.470091  0.612802  1
  Mn  Mn71  1  0.745189  0.971582  0.891478  1
