# generated using pymatgen
data_Li2Mn3(P2O7)2
_symmetry_space_group_name_H-M   'P 1'
_cell_length_a   7.48787654
_cell_length_b   8.01043352
_cell_length_c   9.89404957
_cell_angle_alpha   90.00000000
_cell_angle_beta   110.00168399
_cell_angle_gamma   90.00000000
_symmetry_Int_Tables_number   1
_chemical_formula_structural   Li2Mn3(P2O7)2
_chemical_formula_sum   'Li4 Mn6 P8 O28'
_cell_volume   557.66058248
_cell_formula_units_Z   2
loop_
 _symmetry_equiv_pos_site_id
 _symmetry_equiv_pos_as_xyz
  1  'x, y, z'
loop_
 _atom_site_type_symbol
 _atom_site_label
 _atom_site_symmetry_multiplicity
 _atom_site_fract_x
 _atom_site_fract_y
 _atom_site_fract_z
 _atom_site_occupancy
  Li  Li0  1  0.290966  0.579507  0.851825  1
  Li  Li1  1  0.290966  0.920493  0.351826  1
  Li  Li2  1  0.709033  0.079507  0.648174  1
  Li  Li3  1  0.709033  0.420494  0.148174  1
  O  O4  1  0.316292  0.129768  0.807652  1
  O  O5  1  0.965864  0.914937  0.108524  1
  O  O6  1  0.843656  0.624777  0.124639  1
  O  O7  1  0.988612  0.204055  0.644727  1
  O  O8  1  0.965865  0.585064  0.608524  1
  O  O9  1  0.683707  0.870233  0.192348  1
  O  O10  1  0.011389  0.704054  0.855273  1
  O  O11  1  0.034136  0.085064  0.891477  1
  O  O12  1  0.156344  0.375223  0.875361  1
  O  O13  1  0.011388  0.795946  0.355273  1
  O  O14  1  0.034136  0.414936  0.391476  1
  O  O15  1  0.988612  0.295945  0.144727  1
  O  O16  1  0.378029  0.828214  0.892531  1
  O  O17  1  0.156344  0.124776  0.375361  1
  O  O18  1  0.279145  0.890875  0.625256  1
  O  O19  1  0.396752  0.495469  0.704581  1
  O  O20  1  0.316292  0.370232  0.307651  1
  O  O21  1  0.378029  0.671786  0.392531  1
  O  O22  1  0.279145  0.609125  0.125255  1
  O  O23  1  0.621971  0.171787  0.107469  1
  O  O24  1  0.396752  0.004532  0.204580  1
  O  O25  1  0.720855  0.390874  0.874744  1
  O  O26  1  0.621971  0.328214  0.607469  1
  O  O27  1  0.683707  0.629767  0.692349  1
  O  O28  1  0.603249  0.504532  0.295420  1
  O  O29  1  0.720855  0.109126  0.374745  1
  O  O30  1  0.843657  0.875223  0.624639  1
  O  O31  1  0.603249  0.995468  0.795419  1
  P  P32  1  0.883870  0.795508  0.194911  1
  P  P33  1  0.883870  0.704492  0.694912  1
  P  P34  1  0.601299  0.050828  0.220940  1
  P  P35  1  0.398701  0.550829  0.279060  1
  P  P36  1  0.601299  0.449171  0.720941  1
  P  P37  1  0.398701  0.949171  0.779059  1
  P  P38  1  0.116129  0.204492  0.805088  1
  P  P39  1  0.116130  0.295507  0.305089  1
  Mn  Mn40  1  0.000000  0.000000  0.500001  1
  Mn  Mn41  1  0.198360  0.623118  0.520766  1
  Mn  Mn42  1  0.000000  0.500000  0.000000  1
  Mn  Mn43  1  0.198360  0.876882  0.020767  1
  Mn  Mn44  1  0.801641  0.123118  0.979234  1
  Mn  Mn45  1  0.801640  0.376883  0.479233  1
