# generated using pymatgen
data_LiTi(PO3)4
_symmetry_space_group_name_H-M   'P 1'
_cell_length_a   12.87403033
_cell_length_b   8.38438325
_cell_length_c   9.50487418
_cell_angle_alpha   90.00000000
_cell_angle_beta   90.00000000
_cell_angle_gamma   90.00000000
_symmetry_Int_Tables_number   1
_chemical_formula_structural   LiTi(PO3)4
_chemical_formula_sum   'Li4 Ti4 P16 O48'
_cell_volume   1025.96376337
_cell_formula_units_Z   4
loop_
 _symmetry_equiv_pos_site_id
 _symmetry_equiv_pos_as_xyz
  1  'x, y, z'
loop_
 _atom_site_type_symbol
 _atom_site_label
 _atom_site_symmetry_multiplicity
 _atom_site_fract_x
 _atom_site_fract_y
 _atom_site_fract_z
 _atom_site_occupancy
  Li  Li0  1  0.000000  -0.000024  0.750000  1
  Li  Li1  1  0.000000  1.000024  0.250000  1
  Li  Li2  1  0.500000  0.500024  0.250000  1
  Li  Li3  1  0.500000  0.499976  0.750000  1
  O  O4  1  0.065572  0.186297  0.630277  1
  O  O5  1  0.065572  0.813703  0.130277  1
  O  O6  1  0.073131  0.464519  0.126594  1
  O  O7  1  0.073131  0.535481  0.626594  1
  O  O8  1  0.102261  0.092992  0.374960  1
  O  O9  1  0.102261  0.907008  0.874960  1
  O  O10  1  0.123659  0.374309  0.878236  1
  O  O11  1  0.123659  0.625691  0.378236  1
  O  O12  1  0.178775  0.353098  0.463741  1
  O  O13  1  0.178775  0.646902  0.963741  1
  O  O14  1  0.241757  0.097823  0.569446  1
  O  O15  1  0.241757  0.902177  0.069446  1
  O  O16  1  0.258243  0.402177  0.069446  1
  O  O17  1  0.258243  0.597823  0.569446  1
  O  O18  1  0.321225  0.146902  0.963741  1
  O  O19  1  0.321225  0.853098  0.463741  1
  O  O20  1  0.376341  0.125691  0.378236  1
  O  O21  1  0.376341  0.874309  0.878236  1
  O  O22  1  0.397739  0.407008  0.874960  1
  O  O23  1  0.397739  0.592992  0.374960  1
  O  O24  1  0.426869  0.035481  0.626594  1
  O  O25  1  0.426869  0.964519  0.126594  1
  O  O26  1  0.434428  0.313703  0.130277  1
  O  O27  1  0.434428  0.686297  0.630277  1
  O  O28  1  0.565572  0.313703  0.369723  1
  O  O29  1  0.565572  0.686297  0.869723  1
  O  O30  1  0.573131  0.035481  0.873406  1
  O  O31  1  0.573131  0.964519  0.373406  1
  O  O32  1  0.602261  0.407008  0.625040  1
  O  O33  1  0.602261  0.592992  0.125040  1
  O  O34  1  0.623659  0.125691  0.121764  1
  O  O35  1  0.623659  0.874309  0.621764  1
  O  O36  1  0.678775  0.146902  0.536259  1
  O  O37  1  0.678775  0.853098  0.036259  1
  O  O38  1  0.741757  0.402177  0.430554  1
  O  O39  1  0.741757  0.597823  0.930554  1
  O  O40  1  0.758243  0.097823  0.930554  1
  O  O41  1  0.758243  0.902177  0.430554  1
  O  O42  1  0.821225  0.353098  0.036259  1
  O  O43  1  0.821225  0.646902  0.536259  1
  O  O44  1  0.876341  0.374309  0.621764  1
  O  O45  1  0.876341  0.625691  0.121764  1
  O  O46  1  0.897739  0.092992  0.125040  1
  O  O47  1  0.897739  0.907008  0.625040  1
  O  O48  1  0.926869  0.464519  0.373406  1
  O  O49  1  0.926869  0.535481  0.873406  1
  O  O50  1  0.934428  0.186297  0.869723  1
  O  O51  1  0.934428  0.813703  0.369723  1
  P  P52  1  0.137515  0.176268  0.503293  1
  P  P53  1  0.137515  0.823732  0.003293  1
  P  P54  1  0.151131  0.467822  0.008945  1
  P  P55  1  0.151131  0.532178  0.508945  1
  P  P56  1  0.348869  0.032178  0.508945  1
  P  P57  1  0.348869  0.967822  0.008945  1
  P  P58  1  0.362485  0.323732  0.003293  1
  P  P59  1  0.362485  0.676268  0.503293  1
  P  P60  1  0.637515  0.323732  0.496707  1
  P  P61  1  0.637515  0.676268  0.996707  1
  P  P62  1  0.651131  0.032178  0.991055  1
  P  P63  1  0.651131  0.967822  0.491055  1
  P  P64  1  0.848869  0.467822  0.491055  1
  P  P65  1  0.848869  0.532178  0.991055  1
  P  P66  1  0.862485  0.176268  0.996707  1
  P  P67  1  0.862485  0.823732  0.496707  1
  Ti  Ti68  1  0.000000  0.366680  0.750000  1
  Ti  Ti69  1  0.000000  0.633320  0.250000  1
  Ti  Ti70  1  0.500000  0.133320  0.250000  1
  Ti  Ti71  1  0.500000  0.866680  0.750000  1
