# generated using pymatgen
data_LiFe(PO3)4
_symmetry_space_group_name_H-M   'P 1'
_cell_length_a   7.36341639
_cell_length_b   8.55853796
_cell_length_c   9.35762119
_cell_angle_alpha   114.57413373
_cell_angle_beta   113.16902083
_cell_angle_gamma   64.52104320
_symmetry_Int_Tables_number   1
_chemical_formula_structural   LiFe(PO3)4
_chemical_formula_sum   'Li2 Fe2 P8 O24'
_cell_volume   467.32029235
_cell_formula_units_Z   2
loop_
 _symmetry_equiv_pos_site_id
 _symmetry_equiv_pos_as_xyz
  1  'x, y, z'
loop_
 _atom_site_type_symbol
 _atom_site_label
 _atom_site_symmetry_multiplicity
 _atom_site_fract_x
 _atom_site_fract_y
 _atom_site_fract_z
 _atom_site_occupancy
  Li  Li0  1  0.304251  0.750000  0.750000  1
  Li  Li1  1  0.695750  0.250000  0.250000  1
  O  O2  1  0.485722  0.563819  0.290123  1
  O  O3  1  0.240581  0.063820  0.790122  1
  O  O4  1  0.759418  0.936181  0.209877  1
  O  O5  1  0.603585  0.967489  0.772819  1
  O  O6  1  0.139911  0.791383  0.288565  1
  O  O7  1  0.012794  0.924992  0.790003  1
  O  O8  1  0.642730  0.708617  0.211436  1
  O  O9  1  0.745923  0.728929  0.509981  1
  O  O10  1  0.337662  0.695946  0.539187  1
  O  O11  1  0.494421  0.804053  0.960813  1
  O  O12  1  0.035129  0.228928  0.009981  1
  O  O13  1  0.964872  0.771071  0.990019  1
  O  O14  1  0.201746  0.467489  0.272820  1
  O  O15  1  0.147783  0.575008  0.709996  1
  O  O16  1  0.860088  0.208616  0.711435  1
  O  O17  1  0.798255  0.532510  0.727180  1
  O  O18  1  0.396416  0.032510  0.227181  1
  O  O19  1  0.514279  0.436180  0.709877  1
  O  O20  1  0.505580  0.195946  0.039187  1
  O  O21  1  0.662339  0.304054  0.460813  1
  O  O22  1  0.254076  0.271071  0.490019  1
  O  O23  1  0.357270  0.291384  0.788565  1
  O  O24  1  0.987206  0.075008  0.209997  1
  O  O25  1  0.852218  0.424991  0.290004  1
  P  P26  1  0.710826  0.377068  0.640166  1
  P  P27  1  0.447728  0.122932  0.859834  1
  P  P28  1  0.966511  0.890557  0.161331  1
  P  P29  1  0.552272  0.877068  0.140166  1
  P  P30  1  0.289174  0.622932  0.359834  1
  P  P31  1  0.695737  0.609443  0.338669  1
  P  P32  1  0.304262  0.390558  0.661331  1
  P  P33  1  0.033490  0.109442  0.838669  1
  Fe  Fe34  1  0.139654  0.250000  0.250001  1
  Fe  Fe35  1  0.860347  0.750000  0.749999  1
