# generated using pymatgen
data_LiV(PO3)3
_symmetry_space_group_name_H-M   'P 1'
_cell_length_a   9.85947738
_cell_length_b   9.54762091
_cell_length_c   9.49350996
_cell_angle_alpha   108.41962372
_cell_angle_beta   104.37756338
_cell_angle_gamma   109.88310973
_symmetry_Int_Tables_number   1
_chemical_formula_structural   LiV(PO3)3
_chemical_formula_sum   'Li4 V4 P12 O36'
_cell_volume   731.20557794
_cell_formula_units_Z   4
loop_
 _symmetry_equiv_pos_site_id
 _symmetry_equiv_pos_as_xyz
  1  'x, y, z'
loop_
 _atom_site_type_symbol
 _atom_site_label
 _atom_site_symmetry_multiplicity
 _atom_site_fract_x
 _atom_site_fract_y
 _atom_site_fract_z
 _atom_site_occupancy
  Li  Li0  1  0.501724  0.931227  0.345576  1
  Li  Li1  1  0.335695  0.149005  0.357352  1
  Li  Li2  1  0.664304  0.850994  0.642647  1
  Li  Li3  1  0.498276  0.068773  0.654424  1
  O  O4  1  0.253638  0.012122  0.559450  1
  O  O5  1  -0.001809  0.272219  0.950968  1
  O  O6  1  0.173334  0.839833  0.910262  1
  O  O7  1  0.198520  0.629933  0.998409  1
  O  O8  1  0.143616  0.698459  0.408252  1
  O  O9  1  0.040057  0.177438  0.627061  1
  O  O10  1  0.184535  0.093340  0.878089  1
  O  O11  1  0.320047  0.435298  0.969499  1
  O  O12  1  0.373466  0.643222  0.850708  1
  O  O13  1  0.290909  0.603511  0.573272  1
  O  O14  1  0.298759  0.924319  0.212011  1
  O  O15  1  0.086002  0.143929  0.195855  1
  O  O16  1  0.257893  0.525177  0.280353  1
  O  O17  1  0.443880  0.825064  0.498940  1
  O  O18  1  0.358615  0.389055  0.636008  1
  O  O19  1  0.074950  0.812143  0.637541  1
  O  O20  1  0.576903  0.684949  0.729892  1
  O  O21  1  0.507465  0.251551  0.846597  1
  O  O22  1  0.492534  0.748448  0.153402  1
  O  O23  1  0.423098  0.315052  0.270109  1
  O  O24  1  0.746362  0.987878  0.440549  1
  O  O25  1  0.641385  0.610944  0.363991  1
  O  O26  1  0.556120  0.174936  0.501060  1
  O  O27  1  0.742107  0.474824  0.719647  1
  O  O28  1  0.925050  0.187857  0.362458  1
  O  O29  1  0.701241  0.075682  0.787989  1
  O  O30  1  0.709091  0.396489  0.426729  1
  O  O31  1  0.626533  0.356777  0.149291  1
  O  O32  1  0.679953  0.564702  0.030501  1
  O  O33  1  0.815465  0.906660  0.121911  1
  O  O34  1  0.959943  0.822562  0.372940  1
  O  O35  1  0.856385  0.301541  0.591747  1
  O  O36  1  0.801480  0.370067  0.001591  1
  O  O37  1  0.826666  0.160167  0.089740  1
  O  O38  1  1.001808  0.727780  0.049032  1
  O  O39  1  0.913998  0.856071  0.804145  1
  P  P40  1  0.078820  0.908844  0.811266  1
  P  P41  1  0.107065  0.848468  0.490142  1
  P  P42  1  0.164698  0.789109  0.056816  1
  P  P43  1  0.353904  0.612520  0.001960  1
  P  P44  1  0.295273  0.664771  0.432988  1
  P  P45  1  0.409316  0.571353  0.693750  1
  P  P46  1  0.590684  0.428647  0.306251  1
  P  P47  1  0.704727  0.335230  0.567012  1
  P  P48  1  0.921180  0.091157  0.188734  1
  P  P49  1  0.835303  0.210891  0.943185  1
  P  P50  1  0.892935  0.151532  0.509858  1
  P  P51  1  0.646096  0.387480  0.998040  1
  V  V52  1  0.274351  0.230266  0.747427  1
  V  V53  1  0.212522  0.298858  0.098073  1
  V  V54  1  0.787477  0.701141  0.901926  1
  V  V55  1  0.725648  0.769733  0.252572  1
