# generated using pymatgen
data_MnPO4F
_symmetry_space_group_name_H-M   'P 1'
_cell_length_a   5.15105367
_cell_length_b   5.18814134
_cell_length_c   7.22814557
_cell_angle_alpha   109.28011997
_cell_angle_beta   106.98411313
_cell_angle_gamma   96.64113958
_symmetry_Int_Tables_number   1
_chemical_formula_structural   MnPO4F
_chemical_formula_sum   'Mn2 P2 O8 F2'
_cell_volume   169.50037811
_cell_formula_units_Z   2
loop_
 _symmetry_equiv_pos_site_id
 _symmetry_equiv_pos_as_xyz
  1  'x, y, z'
loop_
 _atom_site_type_symbol
 _atom_site_label
 _atom_site_symmetry_multiplicity
 _atom_site_fract_x
 _atom_site_fract_y
 _atom_site_fract_z
 _atom_site_occupancy
  O  O0  1  0.243815  0.801662  0.121030  1
  O  O1  1  0.714218  0.845169  0.077574  1
  O  O2  1  0.663736  0.193047  0.402722  1
  O  O3  1  0.644656  0.678756  0.344259  1
  O  O4  1  0.285782  0.154831  0.922426  1
  O  O5  1  0.336264  0.806953  0.597278  1
  O  O6  1  0.355344  0.321244  0.655741  1
  O  O7  1  0.756185  0.198338  0.878970  1
  F  F8  1  0.149120  0.319500  0.265009  1
  F  F9  1  0.850880  0.680500  0.734991  1
  P  P10  1  0.435515  0.112298  0.761634  1
  P  P11  1  0.564485  0.887702  0.238366  1
  Mn  Mn12  1  0.000000  0.000000  0.000000  1
  Mn  Mn13  1  0.500000  0.500000  0.500000  1
