# generated using pymatgen
data_Li3Co3(PO4)4
_symmetry_space_group_name_H-M   'P 1'
_cell_length_a   7.68397902
_cell_length_b   8.01721109
_cell_length_c   5.08064312
_cell_angle_alpha   90.90169985
_cell_angle_beta   94.30944662
_cell_angle_gamma   87.90068346
_symmetry_Int_Tables_number   1
_chemical_formula_structural   Li3Co3(PO4)4
_chemical_formula_sum   'Li3 Co3 P4 O16'
_cell_volume   311.86750896
_cell_formula_units_Z   1
loop_
 _symmetry_equiv_pos_site_id
 _symmetry_equiv_pos_as_xyz
  1  'x, y, z'
loop_
 _atom_site_type_symbol
 _atom_site_label
 _atom_site_symmetry_multiplicity
 _atom_site_fract_x
 _atom_site_fract_y
 _atom_site_fract_z
 _atom_site_occupancy
  Li  Li0  1  0.596775  0.136645  0.088724  1
  Li  Li1  1  0.104201  0.361676  0.602238  1
  Li  Li2  1  0.404052  0.859234  0.912058  1
  Co  Co3  1  0.011447  0.021271  0.484207  1
  Co  Co4  1  0.900278  0.642162  0.405504  1
  Co  Co5  1  0.476740  0.486618  0.999014  1
  P  P6  1  0.696050  0.310871  0.534979  1
  P  P7  1  0.299304  0.692918  0.463775  1
  P  P8  1  0.802887  0.807456  0.965390  1
  P  P9  1  0.200891  0.191007  0.032362  1
  O  O10  1  0.647386  0.924370  0.939459  1
  O  O11  1  0.356180  0.071423  0.055092  1
  O  O12  1  0.948309  0.857284  0.183916  1
  O  O13  1  0.235980  0.872256  0.538060  1
  O  O14  1  0.760586  0.628806  0.069939  1
  O  O15  1  0.141688  0.573612  0.441183  1
  O  O16  1  0.434499  0.634260  0.687655  1
  O  O17  1  0.112808  0.198690  0.302338  1
  O  O18  1  0.887593  0.791304  0.693825  1
  O  O19  1  0.251920  0.371149  0.953860  1
  O  O20  1  0.850033  0.433170  0.548144  1
  O  O21  1  0.616564  0.316166  0.808231  1
  O  O22  1  0.768325  0.133435  0.460241  1
  O  O23  1  0.552267  0.357155  0.317435  1
  O  O24  1  0.386490  0.683104  0.196599  1
  O  O25  1  0.056750  0.143959  0.815770  1
