# generated using pymatgen
data_Li3Fe(PO4)2
_symmetry_space_group_name_H-M   'P 1'
_cell_length_a   4.92173433
_cell_length_b   8.83142506
_cell_length_c   6.50265353
_cell_angle_alpha   90.00000000
_cell_angle_beta   94.32228747
_cell_angle_gamma   90.00000000
_symmetry_Int_Tables_number   1
_chemical_formula_structural   Li3Fe(PO4)2
_chemical_formula_sum   'Li6 Fe2 P4 O16'
_cell_volume   281.83999962
_cell_formula_units_Z   2
loop_
 _symmetry_equiv_pos_site_id
 _symmetry_equiv_pos_as_xyz
  1  'x, y, z'
loop_
 _atom_site_type_symbol
 _atom_site_label
 _atom_site_symmetry_multiplicity
 _atom_site_fract_x
 _atom_site_fract_y
 _atom_site_fract_z
 _atom_site_occupancy
  Li  Li0  1  0.014471  0.139950  0.690575  1
  Li  Li1  1  0.985528  0.860050  0.309426  1
  Li  Li2  1  0.514472  0.360050  0.190575  1
  Li  Li3  1  0.000000  0.500000  0.000000  1
  Li  Li4  1  0.485528  0.639951  0.809424  1
  Li  Li5  1  0.500001  0.000000  0.500000  1
  O  O6  1  0.215859  0.355541  0.691068  1
  O  O7  1  0.928231  0.643389  0.754229  1
  O  O8  1  0.071769  0.356611  0.245772  1
  O  O9  1  0.152800  0.098275  0.410073  1
  O  O10  1  0.347201  0.598274  0.089928  1
  O  O11  1  0.168946  0.131549  0.024063  1
  O  O12  1  0.784141  0.644459  0.308933  1
  O  O13  1  0.331055  0.631549  0.475938  1
  O  O14  1  0.847200  0.901725  0.589928  1
  O  O15  1  0.428232  0.856611  0.254228  1
  O  O16  1  0.571767  0.143388  0.745772  1
  O  O17  1  0.652798  0.401726  0.910073  1
  O  O18  1  0.668944  0.368452  0.524062  1
  O  O19  1  0.715860  0.144459  0.191067  1
  O  O20  1  0.831054  0.868451  0.975938  1
  O  O21  1  0.284140  0.855541  0.808933  1
  P  P22  1  0.471839  0.681096  0.278829  1
  P  P23  1  0.528163  0.318904  0.721171  1
  P  P24  1  0.028162  0.181096  0.221172  1
  P  P25  1  0.971838  0.818904  0.778829  1
  Fe  Fe26  1  0.500000  0.000000  0.000000  1
  Fe  Fe27  1  0.999999  0.500000  0.500000  1
