# generated using pymatgen
data_LiMoP4O13
_symmetry_space_group_name_H-M   'P 1'
_cell_length_a   7.22106937
_cell_length_b   8.19717130
_cell_length_c   17.39986552
_cell_angle_alpha   90.00000000
_cell_angle_beta   90.00000000
_cell_angle_gamma   90.00000000
_symmetry_Int_Tables_number   1
_chemical_formula_structural   LiMoP4O13
_chemical_formula_sum   'Li4 Mo4 P16 O52'
_cell_volume   1029.93880097
_cell_formula_units_Z   4
loop_
 _symmetry_equiv_pos_site_id
 _symmetry_equiv_pos_as_xyz
  1  'x, y, z'
loop_
 _atom_site_type_symbol
 _atom_site_label
 _atom_site_symmetry_multiplicity
 _atom_site_fract_x
 _atom_site_fract_y
 _atom_site_fract_z
 _atom_site_occupancy
  Li  Li0  1  0.252594  0.753144  0.498897  1
  Li  Li1  1  0.247407  0.246857  0.998897  1
  Li  Li2  1  0.752593  0.746856  0.501102  1
  Li  Li3  1  0.747406  0.253144  0.001103  1
  O  O4  1  0.393201  0.928950  0.443977  1
  O  O5  1  0.980692  0.856220  0.851000  1
  O  O6  1  0.905180  0.855371  0.416051  1
  O  O7  1  0.915275  0.824027  0.693962  1
  O  O8  1  0.997956  0.282623  0.511028  1
  O  O9  1  0.019308  0.356221  0.649000  1
  O  O10  1  0.083758  0.805905  0.290153  1
  O  O11  1  0.084725  0.324028  0.806039  1
  O  O12  1  0.094820  0.355372  0.083949  1
  O  O13  1  0.097710  0.790729  0.125431  1
  O  O14  1  0.106800  0.071051  0.943977  1
  O  O15  1  0.116938  0.895013  0.577553  1
  O  O16  1  0.128906  0.058402  0.704010  1
  O  O17  1  0.162621  0.512989  0.208443  1
  O  O18  1  0.157209  0.491760  0.420957  1
  O  O19  1  0.206961  0.179017  0.409212  1
  O  O20  1  0.243032  0.219517  0.203568  1
  O  O21  1  0.256969  0.780483  0.703568  1
  O  O22  1  0.293040  0.820982  0.909212  1
  O  O23  1  0.342791  0.508239  0.920957  1
  O  O24  1  0.337380  0.487011  0.708443  1
  O  O25  1  0.371093  0.941597  0.204010  1
  O  O26  1  0.383063  0.104988  0.077553  1
  O  O27  1  0.002043  0.782624  0.988973  1
  O  O28  1  0.402291  0.209271  0.625431  1
  O  O29  1  0.405180  0.644629  0.583949  1
  O  O30  1  0.415276  0.675972  0.306039  1
  O  O31  1  0.416242  0.194095  0.790153  1
  O  O32  1  0.480693  0.643780  0.149000  1
  O  O33  1  0.502044  0.717377  0.011027  1
  O  O34  1  0.497957  0.217377  0.488973  1
  O  O35  1  0.519308  0.143780  0.351000  1
  O  O36  1  0.583758  0.694095  0.709847  1
  O  O37  1  0.584724  0.175973  0.193961  1
  O  O38  1  0.594821  0.144628  0.916051  1
  O  O39  1  0.597709  0.709271  0.874570  1
  O  O40  1  0.606800  0.428950  0.056023  1
  O  O41  1  0.616937  0.604987  0.422447  1
  O  O42  1  0.628906  0.441597  0.295990  1
  O  O43  1  0.662620  0.987011  0.791557  1
  O  O44  1  0.657209  0.008240  0.579043  1
  O  O45  1  0.706960  0.320982  0.590788  1
  O  O46  1  0.743031  0.280482  0.796431  1
  O  O47  1  0.756969  0.719517  0.296432  1
  O  O48  1  0.793039  0.679018  0.090788  1
  O  O49  1  0.842790  0.991761  0.079044  1
  O  O50  1  0.837379  0.012988  0.291557  1
  O  O51  1  0.871094  0.558403  0.795990  1
  O  O52  1  0.883062  0.395013  0.922447  1
  O  O53  1  0.893200  0.571050  0.556022  1
  O  O54  1  0.902290  0.290728  0.374570  1
  O  O55  1  0.916241  0.305906  0.209847  1
  P  P56  1  0.930094  0.829734  0.074558  1
  P  P57  1  0.908603  0.396721  0.576217  1
  P  P58  1  0.902768  0.848682  0.331125  1
  P  P59  1  0.900317  0.389939  0.838036  1
  P  P60  1  0.069906  0.329734  0.425442  1
  P  P61  1  0.091397  0.896721  0.923783  1
  P  P62  1  0.097232  0.348683  0.168874  1
  P  P63  1  0.099684  0.889939  0.661964  1
  P  P64  1  0.400316  0.110061  0.161964  1
  P  P65  1  0.402767  0.651318  0.668875  1
  P  P66  1  0.599684  0.610061  0.338036  1
  P  P67  1  0.430094  0.670266  0.925442  1
  P  P68  1  0.569907  0.170267  0.574558  1
  P  P69  1  0.591398  0.603279  0.076217  1
  P  P70  1  0.597232  0.151318  0.831125  1
  P  P71  1  0.408602  0.103279  0.423783  1
  Mo  Mo72  1  0.232845  0.272838  0.713215  1
  Mo  Mo73  1  0.267155  0.727162  0.213215  1
  Mo  Mo74  1  0.732846  0.227162  0.286784  1
  Mo  Mo75  1  0.767154  0.772838  0.786784  1
