# generated using pymatgen
data_VPO5
_symmetry_space_group_name_H-M   'P 1'
_cell_length_a   7.29588770
_cell_length_b   10.45392696
_cell_length_c   5.05235998
_cell_angle_alpha   90.00000000
_cell_angle_beta   65.84758123
_cell_angle_gamma   90.00000000
_symmetry_Int_Tables_number   1
_chemical_formula_structural   VPO5
_chemical_formula_sum   'V4 P4 O20'
_cell_volume   351.61373307
_cell_formula_units_Z   4
loop_
 _symmetry_equiv_pos_site_id
 _symmetry_equiv_pos_as_xyz
  1  'x, y, z'
loop_
 _atom_site_type_symbol
 _atom_site_label
 _atom_site_symmetry_multiplicity
 _atom_site_fract_x
 _atom_site_fract_y
 _atom_site_fract_z
 _atom_site_occupancy
  O  O0  1  0.044131  0.781112  0.632569  1
  O  O1  1  0.149168  0.323336  0.886707  1
  O  O2  1  0.004268  0.958873  0.276061  1
  O  O3  1  0.159834  0.571624  0.752526  1
  O  O4  1  0.156952  0.416603  0.344904  1
  O  O5  1  0.343050  0.916603  0.655095  1
  O  O6  1  0.340165  0.071625  0.247474  1
  O  O7  1  0.495732  0.458873  0.723939  1
  O  O8  1  0.350832  0.823335  0.113294  1
  O  O9  1  0.455868  0.281113  0.367431  1
  O  O10  1  0.544132  0.718888  0.632569  1
  O  O11  1  0.649169  0.176665  0.886706  1
  O  O12  1  0.504268  0.541127  0.276062  1
  O  O13  1  0.659834  0.928376  0.752527  1
  O  O14  1  0.955868  0.218887  0.367432  1
  O  O15  1  0.843049  0.583397  0.655096  1
  O  O16  1  0.840166  0.428375  0.247472  1
  O  O17  1  0.995732  0.041127  0.723939  1
  O  O18  1  0.850833  0.676665  0.113293  1
  O  O19  1  0.656951  0.083398  0.344905  1
  P  P20  1  0.027670  0.349480  0.216752  1
  P  P21  1  0.472331  0.849480  0.783247  1
  P  P22  1  0.527670  0.150520  0.216751  1
  P  P23  1  0.972330  0.650520  0.783248  1
  V  V24  1  0.175974  0.926456  0.426267  1
  V  V25  1  0.324026  0.426455  0.573733  1
  V  V26  1  0.675975  0.573544  0.426267  1
  V  V27  1  0.824025  0.073545  0.573732  1
