# generated using pymatgen
data_Li7Fe4P9O32
_symmetry_space_group_name_H-M   'P 1'
_cell_length_a   13.85717719
_cell_length_b   13.85717719
_cell_length_c   6.38794760
_cell_angle_alpha   90.00000000
_cell_angle_beta   90.00000000
_cell_angle_gamma   90.00000000
_symmetry_Int_Tables_number   1
_chemical_formula_structural   Li7Fe4P9O32
_chemical_formula_sum   'Li14 Fe8 P18 O64'
_cell_volume   1226.62238369
_cell_formula_units_Z   2
loop_
 _symmetry_equiv_pos_site_id
 _symmetry_equiv_pos_as_xyz
  1  'x, y, z'
loop_
 _atom_site_type_symbol
 _atom_site_label
 _atom_site_symmetry_multiplicity
 _atom_site_fract_x
 _atom_site_fract_y
 _atom_site_fract_z
 _atom_site_occupancy
  Fe  Fe0  1  0.121095  0.196768  0.623581  1
  Fe  Fe1  1  0.196768  0.878905  0.376419  1
  Fe  Fe2  1  0.303232  0.378905  0.123581  1
  Fe  Fe3  1  0.378905  0.696768  0.876419  1
  Fe  Fe4  1  0.621095  0.303232  0.876419  1
  Fe  Fe5  1  0.696768  0.621095  0.123581  1
  Fe  Fe6  1  0.803232  0.121095  0.376419  1
  Fe  Fe7  1  0.878905  0.803232  0.623581  1
  Li  Li8  1  0.000000  0.000000  0.000000  1
  Li  Li9  1  0.000000  0.500000  0.133868  1
  Li  Li10  1  0.000000  0.500000  0.633868  1
  Li  Li11  1  0.106481  0.744642  0.812021  1
  Li  Li12  1  0.244642  0.606481  0.312021  1
  Li  Li13  1  0.255358  0.106481  0.187979  1
  Li  Li14  1  0.393519  0.244642  0.687979  1
  Li  Li15  1  0.500000  0.000000  0.366132  1
  Li  Li16  1  0.500000  0.000000  0.866132  1
  Li  Li17  1  0.500000  0.500000  0.500000  1
  Li  Li18  1  0.606481  0.755358  0.687979  1
  Li  Li19  1  0.744642  0.893519  0.187979  1
  Li  Li20  1  0.755358  0.393519  0.312021  1
  Li  Li21  1  0.893519  0.255358  0.812021  1
  O  O22  1  0.005547  0.728696  0.170405  1
  O  O23  1  0.013072  0.742125  0.573116  1
  O  O24  1  0.056623  0.583035  0.385566  1
  O  O25  1  0.060462  0.065001  0.649161  1
  O  O26  1  0.065001  0.939538  0.350839  1
  O  O27  1  0.083035  0.556623  0.885566  1
  O  O28  1  0.106481  0.187982  0.932381  1
  O  O29  1  0.139957  0.179985  0.312307  1
  O  O30  1  0.158181  0.338119  0.624380  1
  O  O31  1  0.161881  0.341819  0.124380  1
  O  O32  1  0.163750  0.730442  0.352561  1
  O  O33  1  0.179985  0.860043  0.687693  1
  O  O34  1  0.187982  0.893519  0.067619  1
  O  O35  1  0.228696  0.505547  0.670405  1
  O  O36  1  0.230442  0.663750  0.852561  1
  O  O37  1  0.242125  0.513072  0.073116  1
  O  O38  1  0.257875  0.013072  0.426884  1
  O  O39  1  0.269558  0.163750  0.647439  1
  O  O40  1  0.271304  0.005547  0.829595  1
  O  O41  1  0.312018  0.393519  0.432381  1
  O  O42  1  0.320015  0.360043  0.812307  1
  O  O43  1  0.336250  0.230442  0.147439  1
  O  O44  1  0.338119  0.841819  0.375620  1
  O  O45  1  0.341819  0.838119  0.875620  1
  O  O46  1  0.360043  0.679985  0.187693  1
  O  O47  1  0.393519  0.687982  0.567619  1
  O  O48  1  0.416965  0.056623  0.614434  1
  O  O49  1  0.434999  0.439538  0.149161  1
  O  O50  1  0.439538  0.565001  0.850839  1
  O  O51  1  0.443377  0.083035  0.114434  1
  O  O52  1  0.486928  0.242125  0.926884  1
  O  O53  1  0.494453  0.228696  0.329595  1
  O  O54  1  0.505547  0.771304  0.329595  1
  O  O55  1  0.513072  0.757875  0.926884  1
  O  O56  1  0.556623  0.916965  0.114434  1
  O  O57  1  0.560462  0.434999  0.850839  1
  O  O58  1  0.565001  0.560462  0.149161  1
  O  O59  1  0.583035  0.943377  0.614434  1
  O  O60  1  0.606481  0.312018  0.567619  1
  O  O61  1  0.639957  0.320015  0.187693  1
  O  O62  1  0.658181  0.161881  0.875620  1
  O  O63  1  0.661881  0.158181  0.375620  1
  O  O64  1  0.663750  0.769558  0.147439  1
  O  O65  1  0.679985  0.639957  0.812307  1
  O  O66  1  0.687982  0.606481  0.432381  1
  O  O67  1  0.728696  0.994453  0.829595  1
  O  O68  1  0.730442  0.836250  0.647439  1
  O  O69  1  0.742125  0.986928  0.426884  1
  O  O70  1  0.757875  0.486928  0.073116  1
  O  O71  1  0.769558  0.336250  0.852561  1
  O  O72  1  0.771304  0.494453  0.670405  1
  O  O73  1  0.812018  0.106481  0.067619  1
  O  O74  1  0.820015  0.139957  0.687693  1
  O  O75  1  0.836250  0.269558  0.352561  1
  O  O76  1  0.838119  0.658181  0.124380  1
  O  O77  1  0.841819  0.661881  0.624380  1
  O  O78  1  0.860043  0.820015  0.312307  1
  O  O79  1  0.893519  0.812018  0.932381  1
  O  O80  1  0.916965  0.443377  0.885566  1
  O  O81  1  0.934999  0.060462  0.350839  1
  O  O82  1  0.939538  0.934999  0.649161  1
  O  O83  1  0.943377  0.416965  0.385566  1
  O  O84  1  0.986928  0.257875  0.573116  1
  O  O85  1  0.994453  0.271304  0.170405  1
  P  P86  1  0.000000  0.000000  0.500000  1
  P  P87  1  0.059995  0.692060  0.383359  1
  P  P88  1  0.107336  0.246901  0.133540  1
  P  P89  1  0.192060  0.559995  0.883359  1
  P  P90  1  0.246901  0.892664  0.866460  1
  P  P91  1  0.253099  0.392664  0.633540  1
  P  P92  1  0.307940  0.059995  0.616641  1
  P  P93  1  0.392664  0.746901  0.366460  1
  P  P94  1  0.440005  0.192060  0.116641  1
  P  P95  1  0.500000  0.500000  0.000000  1
  P  P96  1  0.559995  0.807940  0.116641  1
  P  P97  1  0.607336  0.253099  0.366460  1
  P  P98  1  0.692060  0.940005  0.616641  1
  P  P99  1  0.746901  0.607336  0.633540  1
  P  P100  1  0.753099  0.107336  0.866460  1
  P  P101  1  0.807940  0.440005  0.883359  1
  P  P102  1  0.892664  0.753099  0.133540  1
  P  P103  1  0.940005  0.307940  0.383359  1
