# generated using pymatgen
data_Co5(P3O11)2
_symmetry_space_group_name_H-M   'P 1'
_cell_length_a   12.63959858
_cell_length_b   6.65219062
_cell_length_c   10.39718319
_cell_angle_alpha   90.00000000
_cell_angle_beta   104.64146671
_cell_angle_gamma   90.00000000
_symmetry_Int_Tables_number   1
_chemical_formula_structural   Co5(P3O11)2
_chemical_formula_sum   'Co10 P12 O44'
_cell_volume   845.81722615
_cell_formula_units_Z   2
loop_
 _symmetry_equiv_pos_site_id
 _symmetry_equiv_pos_as_xyz
  1  'x, y, z'
loop_
 _atom_site_type_symbol
 _atom_site_label
 _atom_site_symmetry_multiplicity
 _atom_site_fract_x
 _atom_site_fract_y
 _atom_site_fract_z
 _atom_site_occupancy
  O  O0  1  0.852039  0.545345  0.170530  1
  O  O1  1  0.997607  0.203115  0.140924  1
  O  O2  1  0.000711  0.289813  0.362837  1
  O  O3  1  0.997607  0.296884  0.640924  1
  O  O4  1  0.000711  0.210186  0.862837  1
  O  O5  1  0.839018  0.916400  0.228829  1
  O  O6  1  0.839495  0.527410  0.444754  1
  O  O7  1  0.728105  0.197902  0.057754  1
  O  O8  1  0.852039  0.954655  0.670530  1
  O  O9  1  0.839017  0.583600  0.728830  1
  O  O10  1  0.002393  0.796885  0.859076  1
  O  O11  1  0.999289  0.710187  0.637163  1
  O  O12  1  0.002393  0.703115  0.359076  1
  O  O13  1  0.999288  0.789813  0.137163  1
  O  O14  1  0.147961  0.454654  0.829470  1
  O  O15  1  0.160983  0.083601  0.771170  1
  O  O16  1  0.160505  0.472589  0.555245  1
  O  O17  1  0.271895  0.802098  0.942246  1
  O  O18  1  0.147961  0.045346  0.329470  1
  O  O19  1  0.160983  0.416399  0.271171  1
  O  O20  1  0.244451  0.785300  0.674528  1
  O  O21  1  0.160505  0.027410  0.055246  1
  O  O22  1  0.271895  0.697902  0.442247  1
  O  O23  1  0.378236  0.190677  0.943243  1
  O  O24  1  0.244451  0.714700  0.174529  1
  O  O25  1  0.369331  0.126858  0.653508  1
  O  O26  1  0.366294  0.505767  0.647934  1
  O  O27  1  0.755549  0.214699  0.325471  1
  O  O28  1  0.378236  0.309322  0.443243  1
  O  O29  1  0.369331  0.373141  0.153508  1
  O  O30  1  0.366294  0.994233  0.147935  1
  O  O31  1  0.460062  0.677011  0.349573  1
  O  O32  1  0.539938  0.322989  0.650427  1
  O  O33  1  0.633706  0.005766  0.852066  1
  O  O34  1  0.630669  0.626858  0.846492  1
  O  O35  1  0.621764  0.690678  0.556757  1
  O  O36  1  0.539938  0.177010  0.150427  1
  O  O37  1  0.633707  0.494233  0.352065  1
  O  O38  1  0.630669  0.873142  0.346492  1
  O  O39  1  0.755549  0.285301  0.825472  1
  O  O40  1  0.621764  0.809322  0.056757  1
  O  O41  1  0.728105  0.302099  0.557754  1
  O  O42  1  0.839495  0.972589  0.944755  1
  O  O43  1  0.460062  0.822989  0.849573  1
  P  P44  1  0.255825  0.618831  0.575591  1
  P  P45  1  0.255826  0.881171  0.075592  1
  P  P46  1  0.417336  0.307763  0.595701  1
  P  P47  1  0.582664  0.807762  0.904299  1
  P  P48  1  0.417336  0.192238  0.095701  1
  P  P49  1  0.086113  0.237941  0.278783  1
  P  P50  1  0.582664  0.692238  0.404299  1
  P  P51  1  0.744175  0.118830  0.924409  1
  P  P52  1  0.744175  0.381170  0.424408  1
  P  P53  1  0.913887  0.762058  0.721218  1
  P  P54  1  0.086113  0.262059  0.778782  1
  P  P55  1  0.913887  0.737941  0.221217  1
  Co  Co56  1  0.861823  0.259919  0.208104  1
  Co  Co57  1  0.861823  0.240082  0.708105  1
  Co  Co58  1  0.666397  0.997650  0.200793  1
  Co  Co59  1  0.666397  0.502351  0.700794  1
  Co  Co60  1  0.333603  0.497649  0.299207  1
  Co  Co61  1  0.333603  0.002351  0.799206  1
  Co  Co62  1  0.138176  0.759919  0.291895  1
  Co  Co63  1  0.000000  0.000000  0.000000  1
  Co  Co64  1  0.138177  0.740082  0.791895  1
  Co  Co65  1  0.000000  0.500000  0.500000  1
