# generated using pymatgen
data_LiMo2P2O11
_symmetry_space_group_name_H-M   'P 1'
_cell_length_a   7.91160547
_cell_length_b   12.89546863
_cell_length_c   8.65980574
_cell_angle_alpha   90.00000000
_cell_angle_beta   107.33112924
_cell_angle_gamma   90.00000000
_symmetry_Int_Tables_number   1
_chemical_formula_structural   LiMo2P2O11
_chemical_formula_sum   'Li4 Mo8 P8 O44'
_cell_volume   843.39479961
_cell_formula_units_Z   4
loop_
 _symmetry_equiv_pos_site_id
 _symmetry_equiv_pos_as_xyz
  1  'x, y, z'
loop_
 _atom_site_type_symbol
 _atom_site_label
 _atom_site_symmetry_multiplicity
 _atom_site_fract_x
 _atom_site_fract_y
 _atom_site_fract_z
 _atom_site_occupancy
  Li  Li0  1  0.156097  0.250000  0.464219  1
  Li  Li1  1  0.500000  0.000000  0.000000  1
  Li  Li2  1  0.500000  0.500000  0.000000  1
  Li  Li3  1  0.843904  0.750000  0.535782  1
  O  O4  1  0.248188  0.653879  0.389398  1
  O  O5  1  0.958319  0.750000  0.270027  1
  O  O6  1  0.900064  0.250000  0.430992  1
  O  O7  1  0.997963  0.498463  0.754805  1
  O  O8  1  0.997963  0.001537  0.754805  1
  O  O9  1  0.814562  0.968152  0.435662  1
  O  O10  1  0.814562  0.531848  0.435662  1
  O  O11  1  0.708217  0.594431  0.143883  1
  O  O12  1  0.096844  0.750000  0.895540  1
  O  O13  1  0.041681  0.250000  0.729972  1
  O  O14  1  0.099936  0.750000  0.569008  1
  O  O15  1  0.002037  0.501537  0.245196  1
  O  O16  1  0.002037  0.998463  0.245196  1
  O  O17  1  0.185439  0.031848  0.564337  1
  O  O18  1  0.185439  0.468152  0.564337  1
  O  O19  1  0.291783  0.094431  0.856116  1
  O  O20  1  0.291783  0.405569  0.856116  1
  O  O21  1  0.294796  0.589791  0.809903  1
  O  O22  1  0.294796  0.910209  0.809903  1
  O  O23  1  0.903157  0.250000  0.104460  1
  O  O24  1  0.248188  0.846120  0.389398  1
  O  O25  1  0.252993  0.156940  0.326441  1
  O  O26  1  0.252993  0.343061  0.326441  1
  O  O27  1  0.352385  0.250000  0.661299  1
  O  O28  1  0.238303  0.250000  0.061522  1
  O  O29  1  0.538100  0.250000  0.976082  1
  O  O30  1  0.476752  0.750000  0.708693  1
  O  O31  1  0.334614  0.515419  0.176466  1
  O  O32  1  0.334614  0.984581  0.176466  1
  O  O33  1  0.500000  0.000000  0.500000  1
  O  O34  1  0.500000  0.500000  0.500000  1
  O  O35  1  0.665385  0.015419  0.823534  1
  O  O36  1  0.665385  0.484581  0.823534  1
  O  O37  1  0.523248  0.250000  0.291308  1
  O  O38  1  0.461901  0.750000  0.023919  1
  O  O39  1  0.761696  0.750000  0.938477  1
  O  O40  1  0.647614  0.750000  0.338701  1
  O  O41  1  0.747006  0.656939  0.673558  1
  O  O42  1  0.747006  0.843060  0.673558  1
  O  O43  1  0.751812  0.153880  0.610601  1
  O  O44  1  0.751812  0.346121  0.610601  1
  O  O45  1  0.705204  0.089791  0.190097  1
  O  O46  1  0.705204  0.410209  0.190097  1
  O  O47  1  0.708217  0.905569  0.143883  1
  P  P48  1  0.814451  0.991995  0.263897  1
  P  P49  1  0.814451  0.508004  0.263897  1
  P  P50  1  0.861247  0.250000  0.598471  1
  P  P51  1  0.678622  0.750000  0.755123  1
  P  P52  1  0.321378  0.250000  0.244877  1
  P  P53  1  0.138753  0.750000  0.401529  1
  P  P54  1  0.185549  0.491996  0.736102  1
  P  P55  1  0.185549  0.008005  0.736102  1
  Mo  Mo56  1  0.264232  0.750000  0.809767  1
  Mo  Mo57  1  0.311793  0.250000  0.847212  1
  Mo  Mo58  1  0.269762  0.501550  0.348020  1
  Mo  Mo59  1  0.269762  0.998450  0.348020  1
  Mo  Mo60  1  0.730239  0.001550  0.651980  1
  Mo  Mo61  1  0.730239  0.498450  0.651980  1
  Mo  Mo62  1  0.688208  0.750000  0.152788  1
  Mo  Mo63  1  0.735768  0.250000  0.190234  1
