# generated using pymatgen
data_Sn(PO3)4
_symmetry_space_group_name_H-M   'P 1'
_cell_length_a   13.17260791
_cell_length_b   8.30685513
_cell_length_c   9.39726148
_cell_angle_alpha   90.00000000
_cell_angle_beta   90.00000000
_cell_angle_gamma   90.00000000
_symmetry_Int_Tables_number   1
_chemical_formula_structural   Sn(PO3)4
_chemical_formula_sum   'Sn4 P16 O48'
_cell_volume   1028.27603165
_cell_formula_units_Z   4
loop_
 _symmetry_equiv_pos_site_id
 _symmetry_equiv_pos_as_xyz
  1  'x, y, z'
loop_
 _atom_site_type_symbol
 _atom_site_label
 _atom_site_symmetry_multiplicity
 _atom_site_fract_x
 _atom_site_fract_y
 _atom_site_fract_z
 _atom_site_occupancy
  O  O0  1  0.070334  0.185953  0.628078  1
  O  O1  1  0.070334  0.814047  0.128078  1
  O  O2  1  0.068702  0.463562  0.132304  1
  O  O3  1  0.068702  0.536438  0.632304  1
  O  O4  1  0.125819  0.088112  0.376635  1
  O  O5  1  0.125819  0.911888  0.876635  1
  O  O6  1  0.123072  0.362227  0.887190  1
  O  O7  1  0.123072  0.637773  0.387190  1
  O  O8  1  0.181378  0.364001  0.470731  1
  O  O9  1  0.181378  0.635999  0.970731  1
  O  O10  1  0.251325  0.116874  0.586984  1
  O  O11  1  0.251325  0.883126  0.086984  1
  O  O12  1  0.248675  0.383126  0.086984  1
  O  O13  1  0.248675  0.616874  0.586984  1
  O  O14  1  0.318622  0.135999  0.970731  1
  O  O15  1  0.318622  0.864001  0.470731  1
  O  O16  1  0.376928  0.137773  0.387190  1
  O  O17  1  0.376928  0.862227  0.887190  1
  O  O18  1  0.374181  0.411888  0.876635  1
  O  O19  1  0.374181  0.588112  0.376635  1
  O  O20  1  0.431298  0.036438  0.632304  1
  O  O21  1  0.431298  0.963562  0.132304  1
  O  O22  1  0.429666  0.314047  0.128078  1
  O  O23  1  0.429666  0.685953  0.628078  1
  O  O24  1  0.570334  0.314047  0.371922  1
  O  O25  1  0.570334  0.685953  0.871922  1
  O  O26  1  0.568702  0.036438  0.867696  1
  O  O27  1  0.568702  0.963562  0.367696  1
  O  O28  1  0.625819  0.411888  0.623365  1
  O  O29  1  0.625819  0.588112  0.123365  1
  O  O30  1  0.623072  0.137773  0.112810  1
  O  O31  1  0.623072  0.862227  0.612810  1
  O  O32  1  0.681378  0.135999  0.529269  1
  O  O33  1  0.681378  0.864001  0.029269  1
  O  O34  1  0.751325  0.383126  0.413016  1
  O  O35  1  0.751325  0.616874  0.913016  1
  O  O36  1  0.748675  0.116874  0.913016  1
  O  O37  1  0.748675  0.883126  0.413016  1
  O  O38  1  0.818622  0.364001  0.029269  1
  O  O39  1  0.818622  0.635999  0.529269  1
  O  O40  1  0.876928  0.362227  0.612810  1
  O  O41  1  0.876928  0.637773  0.112810  1
  O  O42  1  0.874181  0.088112  0.123365  1
  O  O43  1  0.874181  0.911888  0.623365  1
  O  O44  1  0.931298  0.463562  0.367696  1
  O  O45  1  0.931298  0.536438  0.867696  1
  O  O46  1  0.929666  0.185953  0.871922  1
  O  O47  1  0.929666  0.814047  0.371922  1
  P  P48  1  0.147338  0.178446  0.506485  1
  P  P49  1  0.147338  0.821554  0.006485  1
  P  P50  1  0.150574  0.460186  0.018162  1
  P  P51  1  0.150574  0.539814  0.518162  1
  P  P52  1  0.349426  0.039814  0.518162  1
  P  P53  1  0.349426  0.960186  0.018162  1
  P  P54  1  0.352662  0.321554  0.006485  1
  P  P55  1  0.352662  0.678446  0.506485  1
  P  P56  1  0.647338  0.321554  0.493515  1
  P  P57  1  0.647338  0.678446  0.993515  1
  P  P58  1  0.650574  0.039814  0.981838  1
  P  P59  1  0.650574  0.960186  0.481838  1
  P  P60  1  0.849426  0.460186  0.481838  1
  P  P61  1  0.849426  0.539814  0.981838  1
  P  P62  1  0.852662  0.178446  0.993515  1
  P  P63  1  0.852662  0.821554  0.493515  1
  Sn  Sn64  1  0.000000  0.352881  0.750000  1
  Sn  Sn65  1  0.000000  0.647119  0.250000  1
  Sn  Sn66  1  0.500000  0.147119  0.250000  1
  Sn  Sn67  1  0.500000  0.852881  0.750000  1
