# generated using pymatgen
data_LiCrP2O7
_symmetry_space_group_name_H-M   'P 1'
_cell_length_a   6.32235640
_cell_length_b   6.32227081
_cell_length_c   13.16251370
_cell_angle_alpha   79.12279708
_cell_angle_beta   77.59617147
_cell_angle_gamma   99.20754670
_symmetry_Int_Tables_number   1
_chemical_formula_structural   LiCrP2O7
_chemical_formula_sum   'Li4 Cr4 P8 O28'
_cell_volume   493.46033685
_cell_formula_units_Z   4
loop_
 _symmetry_equiv_pos_site_id
 _symmetry_equiv_pos_as_xyz
  1  'x, y, z'
loop_
 _atom_site_type_symbol
 _atom_site_label
 _atom_site_symmetry_multiplicity
 _atom_site_fract_x
 _atom_site_fract_y
 _atom_site_fract_z
 _atom_site_occupancy
  Li  Li0  1  0.412491  0.016762  0.348694  1
  Li  Li1  1  0.587507  0.983242  0.651308  1
  Li  Li2  1  0.865601  0.761454  0.151261  1
  Li  Li3  1  0.134396  0.238551  0.848740  1
  O  O4  1  0.303915  0.604720  0.481050  1
  O  O5  1  0.794197  0.189641  0.872306  1
  O  O6  1  0.729534  0.069981  0.380029  1
  O  O7  1  0.950003  0.109645  0.119973  1
  O  O8  1  0.050002  0.890350  0.880027  1
  O  O9  1  0.270469  0.930029  0.619967  1
  O  O10  1  0.205801  0.810342  0.127696  1
  O  O11  1  0.456661  0.908263  0.816330  1
  O  O12  1  0.086546  0.464581  0.355784  1
  O  O13  1  0.181197  0.575085  0.801265  1
  O  O14  1  0.226292  0.612290  0.978426  1
  O  O15  1  0.775358  0.727040  0.316327  1
  O  O16  1  0.585788  0.784958  0.018952  1
  O  O17  1  0.320316  0.442387  0.144240  1
  O  O18  1  0.090690  0.204680  0.521595  1
  O  O19  1  0.913455  0.535437  0.644214  1
  O  O20  1  0.562046  0.666551  0.627695  1
  O  O21  1  0.224647  0.272970  0.683671  1
  O  O22  1  0.543348  0.091726  0.183671  1
  O  O23  1  0.437957  0.333462  0.372304  1
  O  O24  1  0.123564  0.017624  0.301238  1
  O  O25  1  0.909312  0.795323  0.478402  1
  O  O26  1  0.679680  0.557594  0.855760  1
  O  O27  1  0.414208  0.215032  0.981050  1
  O  O28  1  0.696090  0.395296  0.518947  1
  O  O29  1  0.773706  0.387705  0.021574  1
  O  O30  1  0.818805  0.424921  0.198731  1
  O  O31  1  0.876437  0.982364  0.698762  1
  P  P32  1  0.884934  0.908200  0.363403  1
  P  P33  1  0.115062  0.091823  0.636599  1
  P  P34  1  0.761675  0.584084  0.571998  1
  P  P35  1  0.656058  0.333591  0.927998  1
  P  P36  1  0.228424  0.751589  0.863415  1
  P  P37  1  0.343940  0.666387  0.072004  1
  P  P38  1  0.238329  0.415923  0.428002  1
  P  P39  1  0.771579  0.248410  0.136586  1
  Cr  Cr40  1  0.765290  0.401669  0.360962  1
  Cr  Cr41  1  0.262623  0.126299  0.139037  1
  Cr  Cr42  1  0.737370  0.873654  0.860970  1
  Cr  Cr43  1  0.234696  0.598368  0.639034  1
