# generated using pymatgen
data_LiMn(PO3)4
_symmetry_space_group_name_H-M   'P 1'
_cell_length_a   7.23291715
_cell_length_b   7.23269926
_cell_length_c   10.12318685
_cell_angle_alpha   81.95635568
_cell_angle_beta   69.66344765
_cell_angle_gamma   108.52669577
_symmetry_Int_Tables_number   1
_chemical_formula_structural   LiMn(PO3)4
_chemical_formula_sum   'Li2 Mn2 P8 O24'
_cell_volume   451.78250675
_cell_formula_units_Z   2
loop_
 _symmetry_equiv_pos_site_id
 _symmetry_equiv_pos_as_xyz
  1  'x, y, z'
loop_
 _atom_site_type_symbol
 _atom_site_label
 _atom_site_symmetry_multiplicity
 _atom_site_fract_x
 _atom_site_fract_y
 _atom_site_fract_z
 _atom_site_occupancy
  Li  Li0  1  0.224457  0.974440  0.749988  1
  Li  Li1  1  0.775560  0.025564  0.250009  1
  O  O2  1  0.577959  0.787647  0.930292  1
  O  O3  1  0.887823  0.190985  0.433910  1
  O  O4  1  0.031256  0.666443  0.160035  1
  O  O5  1  0.112183  0.809021  0.566092  1
  O  O6  1  0.187364  0.666168  0.346317  1
  O  O7  1  0.501059  0.846201  0.405191  1
  O  O8  1  0.283824  0.696083  0.843738  1
  O  O9  1  0.124886  0.321706  0.066088  1
  O  O10  1  0.217910  0.508208  0.569696  1
  O  O11  1  0.751381  0.906275  0.094819  1
  O  O12  1  0.968751  0.333550  0.839957  1
  O  O13  1  0.673558  0.808714  0.660048  1
  O  O14  1  0.512472  0.533694  0.153671  1
  O  O15  1  0.039860  0.127547  0.656248  1
  O  O16  1  0.960144  0.872457  0.343758  1
  O  O17  1  0.487546  0.466312  0.846323  1
  O  O18  1  0.812650  0.333840  0.653680  1
  O  O19  1  0.422065  0.212365  0.069701  1
  O  O20  1  0.248637  0.093734  0.905172  1
  O  O21  1  0.782103  0.491798  0.430304  1
  O  O22  1  0.875112  0.678297  0.933904  1
  O  O23  1  0.716162  0.303903  0.156266  1
  O  O24  1  0.498953  0.153804  0.594809  1
  O  O25  1  0.326439  0.191283  0.339959  1
  P  P26  1  0.731143  0.272027  0.529082  1
  P  P27  1  0.992374  0.681591  0.311098  1
  P  P28  1  0.268864  0.727989  0.470912  1
  P  P29  1  0.007643  0.318425  0.688888  1
  P  P30  1  0.698906  0.739806  0.029094  1
  P  P31  1  0.301094  0.260197  0.970904  1
  P  P32  1  0.492640  0.303470  0.188894  1
  P  P33  1  0.507343  0.696525  0.811112  1
  Mn  Mn34  1  0.999934  0.499954  0.999996  1
  Mn  Mn35  1  0.999950  0.999982  0.500045  1
