# generated using pymatgen
data_LiV3(P3O10)2
_symmetry_space_group_name_H-M   'P 1'
_cell_length_a   8.43464770
_cell_length_b   8.43456362
_cell_length_c   12.35430070
_cell_angle_alpha   90.00000000
_cell_angle_beta   90.00000000
_cell_angle_gamma   75.00664652
_symmetry_Int_Tables_number   1
_chemical_formula_structural   LiV3(P3O10)2
_chemical_formula_sum   'Li2 V6 P12 O40'
_cell_volume   848.99475624
_cell_formula_units_Z   2
loop_
 _symmetry_equiv_pos_site_id
 _symmetry_equiv_pos_as_xyz
  1  'x, y, z'
loop_
 _atom_site_type_symbol
 _atom_site_label
 _atom_site_symmetry_multiplicity
 _atom_site_fract_x
 _atom_site_fract_y
 _atom_site_fract_z
 _atom_site_occupancy
  Li  Li0  1  0.584741  0.415259  1.000000  1
  Li  Li1  1  0.415259  0.584741  0.500000  1
  V  V2  1  0.236793  0.236795  0.750003  1
  V  V3  1  0.763207  0.763205  0.250003  1
  V  V4  1  0.129291  0.870709  0.499997  1
  V  V5  1  0.301184  0.301182  0.249999  1
  V  V6  1  0.870709  0.129291  0.999997  1
  V  V7  1  0.698816  0.698818  0.749999  1
  P  P8  1  0.300382  0.815324  0.719648  1
  P  P9  1  0.372007  0.910430  0.183497  1
  P  P10  1  0.910433  0.372006  0.316503  1
  P  P11  1  0.699618  0.184676  0.219648  1
  P  P12  1  0.627993  0.089570  0.683497  1
  P  P13  1  0.184676  0.699618  0.280352  1
  P  P14  1  0.851474  0.734617  0.986982  1
  P  P15  1  0.734619  0.851476  0.513018  1
  P  P16  1  0.265381  0.148524  0.013018  1
  P  P17  1  0.148526  0.265383  0.486982  1
  P  P18  1  0.089567  0.627994  0.816503  1
  P  P19  1  0.815324  0.300382  0.780352  1
  O  O20  1  0.271840  0.325580  0.419285  1
  O  O21  1  0.473027  0.225270  0.696686  1
  O  O22  1  0.346001  0.056745  0.257509  1
  O  O23  1  0.733905  0.277176  0.891948  1
  O  O24  1  0.786733  0.159824  0.698924  1
  O  O25  1  0.144942  0.315621  0.604286  1
  O  O26  1  0.963969  0.355615  0.441259  1
  O  O27  1  0.644385  0.036030  0.558740  1
  O  O28  1  0.722825  0.266094  0.108053  1
  O  O29  1  0.261265  0.998628  0.700745  1
  O  O30  1  0.315625  0.144942  0.895715  1
  O  O31  1  0.840323  0.919149  0.969578  1
  O  O32  1  0.943257  0.653998  0.742490  1
  O  O33  1  0.738735  0.001372  0.200745  1
  O  O34  1  0.159825  0.786733  0.801075  1
  O  O35  1  0.459691  0.726566  0.772056  1
  O  O36  1  0.056743  0.346002  0.242490  1
  O  O37  1  0.001377  0.738733  0.299257  1
  O  O38  1  0.273434  0.540308  0.227944  1
  O  O39  1  0.840175  0.213267  0.301075  1
  O  O40  1  0.684375  0.855058  0.395715  1
  O  O41  1  0.728160  0.674421  0.919285  1
  O  O42  1  0.159677  0.080851  0.469578  1
  O  O43  1  0.540309  0.273434  0.272056  1
  O  O44  1  0.036031  0.644385  0.941259  1
  O  O45  1  0.213267  0.840176  0.198924  1
  O  O46  1  0.726566  0.459692  0.727944  1
  O  O47  1  0.277175  0.733906  0.608053  1
  O  O48  1  0.653999  0.943255  0.757509  1
  O  O49  1  0.225271  0.473022  0.803312  1
  O  O50  1  0.080849  0.159678  0.030423  1
  O  O51  1  0.855058  0.684379  0.104286  1
  O  O52  1  0.266095  0.722824  0.391948  1
  O  O53  1  0.774729  0.526978  0.303312  1
  O  O54  1  0.674422  0.728161  0.580715  1
  O  O55  1  0.325579  0.271839  0.080715  1
  O  O56  1  0.355615  0.963970  0.058740  1
  O  O57  1  0.919151  0.840322  0.530423  1
  O  O58  1  0.526973  0.774730  0.196686  1
  O  O59  1  0.998623  0.261267  0.799257  1
