# generated using pymatgen
data_LiCr(PO3)4
_symmetry_space_group_name_H-M   'P 1'
_cell_length_a   5.20437285
_cell_length_b   13.62579400
_cell_length_c   7.37091421
_cell_angle_alpha   90.00000000
_cell_angle_beta   98.31048772
_cell_angle_gamma   90.00000000
_symmetry_Int_Tables_number   1
_chemical_formula_structural   LiCr(PO3)4
_chemical_formula_sum   'Li2 Cr2 P8 O24'
_cell_volume   517.21021164
_cell_formula_units_Z   2
loop_
 _symmetry_equiv_pos_site_id
 _symmetry_equiv_pos_as_xyz
  1  'x, y, z'
loop_
 _atom_site_type_symbol
 _atom_site_label
 _atom_site_symmetry_multiplicity
 _atom_site_fract_x
 _atom_site_fract_y
 _atom_site_fract_z
 _atom_site_occupancy
  Li  Li0  1  0.368744  0.490338  0.891537  1
  Li  Li1  1  0.631256  0.990338  0.108464  1
  O  O2  1  0.295472  0.890902  0.508774  1
  O  O3  1  0.992610  0.638937  0.229103  1
  O  O4  1  0.007390  0.138937  0.770898  1
  O  O5  1  0.050262  0.731963  0.945615  1
  O  O6  1  0.031615  0.890345  0.771957  1
  O  O7  1  0.065691  0.513988  0.484644  1
  O  O8  1  0.183928  0.381192  0.944328  1
  O  O9  1  0.189156  0.342915  0.550818  1
  O  O10  1  0.205740  0.683900  0.555371  1
  O  O11  1  0.282295  0.141646  0.512598  1
  O  O12  1  0.626913  0.781978  0.769137  1
  O  O13  1  0.373087  0.281978  0.230863  1
  O  O14  1  0.374284  0.757420  0.233737  1
  O  O15  1  0.358119  0.596607  0.044998  1
  O  O16  1  0.968385  0.390345  0.228044  1
  O  O17  1  0.625716  0.257421  0.766263  1
  O  O18  1  0.949738  0.231963  0.054386  1
  O  O19  1  0.704528  0.390902  0.491226  1
  O  O20  1  0.717705  0.641646  0.487401  1
  O  O21  1  0.794260  0.183900  0.444629  1
  O  O22  1  0.810844  0.842915  0.449183  1
  O  O23  1  0.816072  0.881192  0.055671  1
  O  O24  1  0.934309  0.013988  0.515356  1
  O  O25  1  0.641881  0.096607  0.955003  1
  P  P26  1  0.858221  0.823201  0.892740  1
  P  P27  1  0.974970  0.402670  0.444832  1
  P  P28  1  0.010861  0.126895  0.555569  1
  P  P29  1  0.025030  0.902670  0.555169  1
  P  P30  1  0.141779  0.323201  0.107260  1
  P  P31  1  0.221009  0.680316  0.116832  1
  P  P32  1  0.778991  0.180316  0.883168  1
  P  P33  1  0.989139  0.626895  0.444431  1
  Cr  Cr34  1  0.506206  0.765635  0.501460  1
  Cr  Cr35  1  0.493794  0.265636  0.498540  1
