# generated using pymatgen
data_LiMo2P3O11
_symmetry_space_group_name_H-M   'P 1'
_cell_length_a   7.48402611
_cell_length_b   7.48402611
_cell_length_c   9.07355201
_cell_angle_alpha   69.44031997
_cell_angle_beta   110.55968004
_cell_angle_gamma   105.78800774
_symmetry_Int_Tables_number   1
_chemical_formula_structural   LiMo2P3O11
_chemical_formula_sum   'Li2 Mo4 P6 O22'
_cell_volume   439.07731326
_cell_formula_units_Z   2
loop_
 _symmetry_equiv_pos_site_id
 _symmetry_equiv_pos_as_xyz
  1  'x, y, z'
loop_
 _atom_site_type_symbol
 _atom_site_label
 _atom_site_symmetry_multiplicity
 _atom_site_fract_x
 _atom_site_fract_y
 _atom_site_fract_z
 _atom_site_occupancy
  Li  Li0  1  0.487309  0.991907  0.014140  1
  Li  Li1  1  0.991907  0.487309  0.485860  1
  O  O2  1  0.042925  0.254900  0.748041  1
  O  O3  1  0.891072  0.013450  0.593359  1
  O  O4  1  0.758131  0.382620  0.214118  1
  O  O5  1  0.526955  0.151437  0.373564  1
  O  O6  1  0.013451  0.891071  0.906641  1
  O  O7  1  0.107101  0.986987  0.406312  1
  O  O8  1  0.244001  0.617367  0.791611  1
  O  O9  1  0.471728  0.847460  0.627585  1
  O  O10  1  0.597914  0.721670  0.937726  1
  O  O11  1  0.986987  0.107100  0.093688  1
  O  O12  1  0.382620  0.758130  0.285882  1
  O  O13  1  0.500007  0.500007  0.750000  1
  O  O14  1  0.151436  0.526955  0.126435  1
  O  O15  1  0.274760  0.404365  0.436371  1
  O  O16  1  0.743718  0.955999  0.248341  1
  O  O17  1  0.404365  0.274760  0.063628  1
  O  O18  1  0.721670  0.597914  0.562274  1
  O  O19  1  0.847460  0.471728  0.872415  1
  O  O20  1  0.498116  0.498115  0.250000  1
  O  O21  1  0.617367  0.244000  0.708389  1
  O  O22  1  0.956000  0.743719  0.251659  1
  O  O23  1  0.254900  0.042925  0.751959  1
  P  P24  1  0.549421  0.321588  0.218719  1
  P  P25  1  0.954826  0.954826  0.250000  1
  P  P26  1  0.676738  0.450590  0.717117  1
  P  P27  1  0.321588  0.549420  0.281282  1
  P  P28  1  0.450591  0.676738  0.782882  1
  P  P29  1  0.044096  0.044095  0.750000  1
  Mo  Mo30  1  0.118486  0.360603  0.952213  1
  Mo  Mo31  1  0.638018  0.880765  0.453063  1
  Mo  Mo32  1  0.360603  0.118485  0.547787  1
  Mo  Mo33  1  0.880766  0.638019  0.046937  1
