# generated using pymatgen
data_LiCo2P3O10
_symmetry_space_group_name_H-M   'P 1'
_cell_length_a   4.65714073
_cell_length_b   8.56739625
_cell_length_c   9.07327001
_cell_angle_alpha   90.00000000
_cell_angle_beta   97.85468266
_cell_angle_gamma   90.00000000
_symmetry_Int_Tables_number   1
_chemical_formula_structural   LiCo2P3O10
_chemical_formula_sum   'Li2 Co4 P6 O20'
_cell_volume   358.62305495
_cell_formula_units_Z   2
loop_
 _symmetry_equiv_pos_site_id
 _symmetry_equiv_pos_as_xyz
  1  'x, y, z'
loop_
 _atom_site_type_symbol
 _atom_site_label
 _atom_site_symmetry_multiplicity
 _atom_site_fract_x
 _atom_site_fract_y
 _atom_site_fract_z
 _atom_site_occupancy
  Li  Li0  1  0.000000  0.500000  0.000000  1
  Li  Li1  1  0.000000  0.000000  0.000000  1
  O  O2  1  0.242385  0.750000  0.760531  1
  O  O3  1  0.757615  0.250000  0.239469  1
  O  O4  1  0.283417  0.399420  0.158344  1
  O  O5  1  0.716583  0.899420  0.841656  1
  O  O6  1  0.716583  0.600580  0.841656  1
  O  O7  1  0.283417  0.100580  0.158344  1
  O  O8  1  0.450811  0.750000  0.024041  1
  O  O9  1  0.549189  0.250000  0.975959  1
  O  O10  1  0.775889  0.099689  0.517885  1
  O  O11  1  0.224111  0.599689  0.482115  1
  O  O12  1  0.224111  0.900311  0.482115  1
  O  O13  1  0.775889  0.400311  0.517885  1
  O  O14  1  0.302767  0.250000  0.447448  1
  O  O15  1  0.697233  0.750000  0.552552  1
  O  O16  1  0.564310  0.250000  0.712275  1
  O  O17  1  0.435690  0.750000  0.287725  1
  O  O18  1  0.158510  0.099400  0.813785  1
  O  O19  1  0.841490  0.599400  0.186215  1
  O  O20  1  0.841490  0.900600  0.186215  1
  O  O21  1  0.158510  0.400600  0.813785  1
  P  P22  1  0.542424  0.750000  0.855481  1
  P  P23  1  0.457576  0.250000  0.144519  1
  P  P24  1  0.671673  0.750000  0.177463  1
  P  P25  1  0.328327  0.250000  0.822537  1
  P  P26  1  0.394803  0.750000  0.461453  1
  P  P27  1  0.605197  0.250000  0.538547  1
  Co  Co28  1  0.036836  0.430154  0.336059  1
  Co  Co29  1  0.963164  0.930154  0.663941  1
  Co  Co30  1  0.963164  0.569846  0.663941  1
  Co  Co31  1  0.036836  0.069846  0.336059  1
