# generated using pymatgen
data_LiMoP2O7
_symmetry_space_group_name_H-M   'P 1'
_cell_length_a   8.58294885
_cell_length_b   5.10005528
_cell_length_c   12.75913200
_cell_angle_alpha   90.00000000
_cell_angle_beta   78.18933548
_cell_angle_gamma   90.00000000
_symmetry_Int_Tables_number   1
_chemical_formula_structural   LiMoP2O7
_chemical_formula_sum   'Li4 Mo4 P8 O28'
_cell_volume   546.68795237
_cell_formula_units_Z   4
loop_
 _symmetry_equiv_pos_site_id
 _symmetry_equiv_pos_as_xyz
  1  'x, y, z'
loop_
 _atom_site_type_symbol
 _atom_site_label
 _atom_site_symmetry_multiplicity
 _atom_site_fract_x
 _atom_site_fract_y
 _atom_site_fract_z
 _atom_site_occupancy
  Li  Li0  1  0.117319  0.258151  0.302513  1
  Li  Li1  1  0.382681  0.758152  0.197487  1
  Li  Li2  1  0.617319  0.241848  0.802513  1
  Li  Li3  1  0.882681  0.741849  0.697487  1
  O  O4  1  0.413514  0.140933  0.119808  1
  O  O5  1  0.826725  0.428217  0.854767  1
  O  O6  1  0.913514  0.359068  0.619808  1
  O  O7  1  0.917229  0.058029  0.401709  1
  O  O8  1  0.086722  0.046384  0.160556  1
  O  O9  1  0.173275  0.571783  0.145233  1
  O  O10  1  0.086486  0.640931  0.380192  1
  O  O11  1  0.082771  0.941971  0.598291  1
  O  O12  1  0.099478  0.290894  0.742068  1
  O  O13  1  0.056706  0.288867  0.939873  1
  O  O14  1  0.215631  0.382585  0.551332  1
  O  O15  1  0.913278  0.953615  0.839444  1
  O  O16  1  0.326725  0.071784  0.354766  1
  O  O17  1  0.413278  0.546385  0.339443  1
  O  O18  1  0.284368  0.882586  0.948668  1
  O  O19  1  0.582771  0.558030  0.098291  1
  O  O20  1  0.443295  0.788866  0.560127  1
  O  O21  1  0.400521  0.790893  0.757931  1
  O  O22  1  0.900522  0.709106  0.257932  1
  O  O23  1  0.556705  0.211134  0.439873  1
  O  O24  1  0.417229  0.441972  0.901709  1
  O  O25  1  0.715632  0.117414  0.051332  1
  O  O26  1  0.586722  0.453614  0.660556  1
  O  O27  1  0.673275  0.928216  0.645234  1
  O  O28  1  0.586486  0.859067  0.880191  1
  O  O29  1  0.784369  0.617415  0.448668  1
  O  O30  1  0.943294  0.711133  0.060127  1
  O  O31  1  0.599479  0.209107  0.242069  1
  P  P32  1  0.969617  0.237807  0.851680  1
  P  P33  1  0.921577  0.760577  0.379195  1
  P  P34  1  0.530383  0.737808  0.648320  1
  P  P35  1  0.421577  0.739424  0.879195  1
  P  P36  1  0.030383  0.762193  0.148320  1
  P  P37  1  0.078423  0.239423  0.620805  1
  P  P38  1  0.578423  0.260576  0.120805  1
  P  P39  1  0.469617  0.262192  0.351680  1
  Mo  Mo40  1  0.237743  0.246647  0.028872  1
  Mo  Mo41  1  0.262257  0.746648  0.471128  1
  Mo  Mo42  1  0.737743  0.253352  0.528872  1
  Mo  Mo43  1  0.762257  0.753353  0.971128  1
