# generated using pymatgen
data_LiCoPO4
_symmetry_space_group_name_H-M   'P 1'
_cell_length_a   8.70292171
_cell_length_b   8.01752357
_cell_length_c   15.01610105
_cell_angle_alpha   90.00000000
_cell_angle_beta   90.61751540
_cell_angle_gamma   90.00000000
_symmetry_Int_Tables_number   1
_chemical_formula_structural   LiCoPO4
_chemical_formula_sum   'Li12 Co12 P12 O48'
_cell_volume   1047.70081174
_cell_formula_units_Z   12
loop_
 _symmetry_equiv_pos_site_id
 _symmetry_equiv_pos_as_xyz
  1  'x, y, z'
loop_
 _atom_site_type_symbol
 _atom_site_label
 _atom_site_symmetry_multiplicity
 _atom_site_fract_x
 _atom_site_fract_y
 _atom_site_fract_z
 _atom_site_occupancy
  Li  Li0  1  0.189479  0.991216  0.940257  1
  Li  Li1  1  0.810522  0.008785  0.059743  1
  Li  Li2  1  0.784508  0.982448  0.414926  1
  Li  Li3  1  0.749269  0.153083  0.753262  1
  Li  Li4  1  0.750730  0.653083  0.746738  1
  Li  Li5  1  0.715493  0.482448  0.085073  1
  Li  Li6  1  0.689478  0.508784  0.440257  1
  Li  Li7  1  0.310522  0.491215  0.559743  1
  Li  Li8  1  0.284508  0.517553  0.914926  1
  Li  Li9  1  0.249269  0.346916  0.253262  1
  Li  Li10  1  0.250731  0.846916  0.246738  1
  Li  Li11  1  0.215493  0.017552  0.585073  1
  O  O12  1  0.085410  0.053897  0.824233  1
  O  O13  1  0.770217  0.868463  0.953076  1
  O  O14  1  0.775599  0.773953  0.294230  1
  O  O15  1  0.782668  0.741215  0.632262  1
  O  O16  1  0.975574  0.427948  0.402256  1
  O  O17  1  0.907901  0.718992  0.826051  1
  O  O18  1  0.920055  0.789416  0.487248  1
  O  O19  1  0.914589  0.946102  0.175767  1
  O  O20  1  0.913931  0.635310  0.161151  1
  O  O21  1  0.938122  0.228814  0.710421  1
  O  O22  1  0.949566  0.210992  0.030593  1
  O  O23  1  0.952346  0.124636  0.365023  1
  O  O24  1  0.024425  0.572052  0.597744  1
  O  O25  1  0.047653  0.875364  0.634978  1
  O  O26  1  0.050434  0.789008  0.969407  1
  O  O27  1  0.061877  0.771186  0.289578  1
  O  O28  1  0.086068  0.364690  0.838849  1
  O  O29  1  0.841285  0.564783  0.968481  1
  O  O30  1  0.079946  0.210583  0.512752  1
  O  O31  1  0.092099  0.281008  0.173949  1
  O  O32  1  0.158714  0.435217  0.031518  1
  O  O33  1  0.217332  0.258786  0.367738  1
  O  O34  1  0.224401  0.226047  0.705770  1
  O  O35  1  0.229784  0.131536  0.046924  1
  O  O36  1  0.270217  0.631536  0.453076  1
  O  O37  1  0.275598  0.726046  0.794230  1
  O  O38  1  0.282667  0.758785  0.132262  1
  O  O39  1  0.341286  0.935217  0.468481  1
  O  O40  1  0.407901  0.781008  0.326051  1
  O  O41  1  0.420055  0.710584  0.987248  1
  O  O42  1  0.414589  0.553898  0.675767  1
  O  O43  1  0.413931  0.864690  0.661151  1
  O  O44  1  0.438122  0.271185  0.210421  1
  O  O45  1  0.449566  0.289008  0.530593  1
  O  O46  1  0.452347  0.375364  0.865023  1
  O  O47  1  0.475574  0.072053  0.902256  1
  O  O48  1  0.524425  0.927948  0.097743  1
  O  O49  1  0.547653  0.624636  0.134977  1
  O  O50  1  0.550434  0.710992  0.469407  1
  O  O51  1  0.561877  0.728814  0.789579  1
  O  O52  1  0.729784  0.368463  0.546924  1
  O  O53  1  0.585411  0.446102  0.324234  1
  O  O54  1  0.579945  0.289416  0.012752  1
  O  O55  1  0.592099  0.218993  0.673949  1
  O  O56  1  0.658714  0.064782  0.531519  1
  O  O57  1  0.717332  0.241214  0.867738  1
  O  O58  1  0.724401  0.273953  0.205770  1
  O  O59  1  0.586068  0.135309  0.338849  1
  P  P60  1  0.056095  0.255983  0.412666  1
  P  P61  1  0.086371  0.220293  0.770098  1
  P  P62  1  0.108086  0.264551  0.071210  1
  P  P63  1  0.391915  0.764551  0.428791  1
  P  P64  1  0.413629  0.720293  0.729902  1
  P  P65  1  0.443905  0.755983  0.087334  1
  P  P66  1  0.556095  0.244018  0.912667  1
  P  P67  1  0.586371  0.279707  0.270098  1
  P  P68  1  0.608086  0.235449  0.571209  1
  P  P69  1  0.891914  0.735449  0.928791  1
  P  P70  1  0.913628  0.779708  0.229902  1
  P  P71  1  0.943905  0.744017  0.587333  1
  Co  Co72  1  0.945903  0.342623  0.592469  1
  Co  Co73  1  0.918853  0.166480  0.235453  1
  Co  Co74  1  0.906677  0.345291  0.920961  1
  Co  Co75  1  0.593323  0.845291  0.579040  1
  Co  Co76  1  0.581147  0.666480  0.264547  1
  Co  Co77  1  0.554098  0.842624  0.907531  1
  Co  Co78  1  0.445902  0.157377  0.092469  1
  Co  Co79  1  0.418852  0.333519  0.735453  1
  Co  Co80  1  0.406677  0.154710  0.420961  1
  Co  Co81  1  0.093322  0.654710  0.079039  1
  Co  Co82  1  0.081147  0.833519  0.764547  1
  Co  Co83  1  0.054098  0.657376  0.407531  1
