# generated using pymatgen
data_Ti(PO3)4
_symmetry_space_group_name_H-M   'P 1'
_cell_length_a   12.99585527
_cell_length_b   8.33176968
_cell_length_c   9.30344473
_cell_angle_alpha   90.00000000
_cell_angle_beta   90.00000000
_cell_angle_gamma   90.00000000
_symmetry_Int_Tables_number   1
_chemical_formula_structural   Ti(PO3)4
_chemical_formula_sum   'Ti4 P16 O48'
_cell_volume   1007.36278811
_cell_formula_units_Z   4
loop_
 _symmetry_equiv_pos_site_id
 _symmetry_equiv_pos_as_xyz
  1  'x, y, z'
loop_
 _atom_site_type_symbol
 _atom_site_label
 _atom_site_symmetry_multiplicity
 _atom_site_fract_x
 _atom_site_fract_y
 _atom_site_fract_z
 _atom_site_occupancy
  O  O0  1  0.073280  0.200782  0.634570  1
  O  O1  1  0.073280  0.799218  0.134570  1
  O  O2  1  0.069424  0.475927  0.136671  1
  O  O3  1  0.069424  0.524073  0.636671  1
  O  O4  1  0.117631  0.088174  0.379732  1
  O  O5  1  0.117631  0.911826  0.879732  1
  O  O6  1  0.115631  0.365541  0.887863  1
  O  O7  1  0.115631  0.634459  0.387863  1
  O  O8  1  0.182821  0.363686  0.464941  1
  O  O9  1  0.182821  0.636314  0.964941  1
  O  O10  1  0.251794  0.116652  0.584684  1
  O  O11  1  0.251794  0.883348  0.084684  1
  O  O12  1  0.248206  0.383348  0.084684  1
  O  O13  1  0.248206  0.616652  0.584684  1
  O  O14  1  0.317179  0.136314  0.964941  1
  O  O15  1  0.317179  0.863686  0.464941  1
  O  O16  1  0.384369  0.134459  0.387863  1
  O  O17  1  0.384369  0.865541  0.887863  1
  O  O18  1  0.382369  0.411826  0.879732  1
  O  O19  1  0.382369  0.588174  0.379732  1
  O  O20  1  0.430576  0.024073  0.636671  1
  O  O21  1  0.430576  0.975927  0.136671  1
  O  O22  1  0.426720  0.299218  0.134570  1
  O  O23  1  0.426720  0.700782  0.634570  1
  O  O24  1  0.573280  0.299218  0.365430  1
  O  O25  1  0.573280  0.700782  0.865430  1
  O  O26  1  0.569424  0.024073  0.863329  1
  O  O27  1  0.569424  0.975927  0.363329  1
  O  O28  1  0.617631  0.411826  0.620268  1
  O  O29  1  0.617631  0.588174  0.120268  1
  O  O30  1  0.615631  0.134459  0.112137  1
  O  O31  1  0.615631  0.865541  0.612137  1
  O  O32  1  0.682821  0.136314  0.535059  1
  O  O33  1  0.682821  0.863686  0.035059  1
  O  O34  1  0.751794  0.383348  0.415316  1
  O  O35  1  0.751794  0.616652  0.915316  1
  O  O36  1  0.748206  0.116652  0.915316  1
  O  O37  1  0.748206  0.883348  0.415316  1
  O  O38  1  0.817179  0.363686  0.035059  1
  O  O39  1  0.817179  0.636314  0.535059  1
  O  O40  1  0.884369  0.365541  0.612137  1
  O  O41  1  0.884369  0.634459  0.112137  1
  O  O42  1  0.882369  0.088174  0.120268  1
  O  O43  1  0.882369  0.911826  0.620268  1
  O  O44  1  0.930576  0.475927  0.363329  1
  O  O45  1  0.930576  0.524073  0.863329  1
  O  O46  1  0.926720  0.200782  0.865430  1
  O  O47  1  0.926720  0.799218  0.365430  1
  P  P48  1  0.147280  0.181209  0.506082  1
  P  P49  1  0.147280  0.818791  0.006082  1
  P  P50  1  0.148257  0.462949  0.017718  1
  P  P51  1  0.148257  0.537051  0.517718  1
  P  P52  1  0.351743  0.037051  0.517718  1
  P  P53  1  0.351743  0.962949  0.017718  1
  P  P54  1  0.352720  0.318791  0.006082  1
  P  P55  1  0.352720  0.681209  0.506082  1
  P  P56  1  0.647280  0.318791  0.493918  1
  P  P57  1  0.647280  0.681209  0.993918  1
  P  P58  1  0.648257  0.037051  0.982282  1
  P  P59  1  0.648257  0.962949  0.482282  1
  P  P60  1  0.851743  0.462949  0.482282  1
  P  P61  1  0.851743  0.537051  0.982282  1
  P  P62  1  0.852720  0.181209  0.993918  1
  P  P63  1  0.852720  0.818791  0.493918  1
  Ti  Ti64  1  0.000000  0.348121  0.750000  1
  Ti  Ti65  1  0.000000  0.651879  0.250000  1
  Ti  Ti66  1  0.500000  0.151879  0.250000  1
  Ti  Ti67  1  0.500000  0.848121  0.750000  1
