# generated using pymatgen
data_Mo2PO8
_symmetry_space_group_name_H-M   'P 1'
_cell_length_a   6.71966202
_cell_length_b   5.38325823
_cell_length_c   17.72723689
_cell_angle_alpha   90.00000000
_cell_angle_beta   90.14506264
_cell_angle_gamma   90.00000000
_symmetry_Int_Tables_number   1
_chemical_formula_structural   Mo2PO8
_chemical_formula_sum   'Mo8 P4 O32'
_cell_volume   641.25726602
_cell_formula_units_Z   4
loop_
 _symmetry_equiv_pos_site_id
 _symmetry_equiv_pos_as_xyz
  1  'x, y, z'
loop_
 _atom_site_type_symbol
 _atom_site_label
 _atom_site_symmetry_multiplicity
 _atom_site_fract_x
 _atom_site_fract_y
 _atom_site_fract_z
 _atom_site_occupancy
  Mo  Mo0  1  0.999936  0.773693  0.872883  1
  Mo  Mo1  1  0.840685  0.769002  0.547218  1
  Mo  Mo2  1  0.661319  0.775795  0.044992  1
  Mo  Mo3  1  0.502238  0.771519  0.372335  1
  Mo  Mo4  1  0.497762  0.271521  0.627665  1
  Mo  Mo5  1  0.338680  0.275794  0.955009  1
  Mo  Mo6  1  0.159315  0.269002  0.452781  1
  Mo  Mo7  1  0.000063  0.273693  0.127117  1
  P  P8  1  0.197934  0.766239  0.689714  1
  P  P9  1  0.302636  0.781816  0.187537  1
  P  P10  1  0.697365  0.281818  0.812463  1
  P  P11  1  0.802065  0.266239  0.310286  1
  O  O12  1  0.485131  0.543541  0.995836  1
  O  O13  1  0.817016  0.501345  0.087901  1
  O  O14  1  0.841608  0.773650  0.958983  1
  O  O15  1  0.803088  0.533568  0.824324  1
  O  O16  1  0.993533  0.267169  0.357893  1
  O  O17  1  0.989996  0.526645  0.502218  1
  O  O18  1  0.861318  0.281737  0.226432  1
  O  O19  1  0.846538  0.008651  0.096072  1
  O  O20  1  0.006467  0.767170  0.642107  1
  O  O21  1  0.010004  0.026645  0.497782  1
  O  O22  1  0.138683  0.781737  0.773568  1
  O  O23  1  0.153461  0.508650  0.903928  1
  O  O24  1  0.164436  0.564273  0.166368  1
  O  O25  1  0.182983  0.001344  0.912100  1
  O  O26  1  0.158391  0.273650  0.041017  1
  O  O27  1  0.196913  0.033567  0.175676  1
  O  O28  1  0.326772  0.993562  0.671079  1
  O  O29  1  0.673229  0.493560  0.328920  1
  O  O30  1  0.325381  0.526653  0.408905  1
  O  O31  1  0.343017  0.273996  0.543188  1
  O  O32  1  0.339020  0.019651  0.402691  1
  O  O33  1  0.361963  0.756808  0.270591  1
  O  O34  1  0.835563  0.064273  0.833632  1
  O  O35  1  0.507861  0.273111  0.861788  1
  O  O36  1  0.492140  0.773112  0.138212  1
  O  O37  1  0.514868  0.043542  0.004164  1
  O  O38  1  0.638036  0.256808  0.729410  1
  O  O39  1  0.660980  0.519651  0.597309  1
  O  O40  1  0.656982  0.773996  0.456812  1
  O  O41  1  0.674620  0.026653  0.591094  1
  O  O42  1  0.686853  0.022209  0.322021  1
  O  O43  1  0.313148  0.522209  0.677979  1
