# generated using pymatgen
data_MnP2O7
_symmetry_space_group_name_H-M   'P 1'
_cell_length_a   9.02583781
_cell_length_b   8.45255638
_cell_length_c   6.80766229
_cell_angle_alpha   90.00000000
_cell_angle_beta   102.39488570
_cell_angle_gamma   90.00000000
_symmetry_Int_Tables_number   1
_chemical_formula_structural   MnP2O7
_chemical_formula_sum   'Mn4 P8 O28'
_cell_volume   507.26043223
_cell_formula_units_Z   4
loop_
 _symmetry_equiv_pos_site_id
 _symmetry_equiv_pos_as_xyz
  1  'x, y, z'
loop_
 _atom_site_type_symbol
 _atom_site_label
 _atom_site_symmetry_multiplicity
 _atom_site_fract_x
 _atom_site_fract_y
 _atom_site_fract_z
 _atom_site_occupancy
  Mn  Mn0  1  0.249931  0.935550  0.749746  1
  Mn  Mn1  1  0.750069  0.064450  0.250254  1
  Mn  Mn2  1  0.750069  0.435550  0.250254  1
  Mn  Mn3  1  0.249931  0.564450  0.749746  1
  P  P4  1  0.556375  0.250000  0.499815  1
  P  P5  1  0.944139  0.250000  0.001707  1
  P  P6  1  0.478010  0.250000  0.912234  1
  P  P7  1  0.055861  0.750000  0.998293  1
  P  P8  1  0.521990  0.750000  0.087766  1
  P  P9  1  0.443625  0.750000  0.500185  1
  P  P10  1  0.022524  0.250000  0.587916  1
  P  P11  1  0.977476  0.750000  0.412084  1
  O  O12  1  0.109515  0.750000  0.605609  1
  O  O13  1  0.387916  0.099023  0.903630  1
  O  O14  1  0.391545  0.250000  0.390568  1
  O  O15  1  0.424718  0.750000  0.260961  1
  O  O16  1  0.112542  0.098883  0.595216  1
  O  O17  1  0.072776  0.750000  0.236958  1
  O  O18  1  0.360295  0.904928  0.537903  1
  O  O19  1  0.139379  0.904905  0.961207  1
  O  O20  1  0.887458  0.901117  0.404784  1
  O  O21  1  0.139379  0.595095  0.961207  1
  O  O22  1  0.360295  0.595072  0.537903  1
  O  O23  1  0.927224  0.250000  0.763042  1
  O  O24  1  0.390842  0.750000  0.893141  1
  O  O25  1  0.575282  0.250000  0.739039  1
  O  O26  1  0.608455  0.750000  0.609432  1
  O  O27  1  0.112542  0.401117  0.595216  1
  O  O28  1  0.860621  0.404905  0.038793  1
  O  O29  1  0.891687  0.750000  0.886356  1
  O  O30  1  0.609158  0.250000  0.106859  1
  O  O31  1  0.612084  0.900977  0.096370  1
  O  O32  1  0.639705  0.095072  0.462097  1
  O  O33  1  0.387916  0.400977  0.903630  1
  O  O34  1  0.887458  0.598883  0.404784  1
  O  O35  1  0.612084  0.599023  0.096370  1
  O  O36  1  0.860621  0.095095  0.038793  1
  O  O37  1  0.890485  0.250000  0.394391  1
  O  O38  1  0.108313  0.250000  0.113644  1
  O  O39  1  0.639705  0.404928  0.462097  1
