# generated using pymatgen
data_Mo(PO4)2
_symmetry_space_group_name_H-M   'P 1'
_cell_length_a   11.50733449
_cell_length_b   5.25930214
_cell_length_c   10.97272150
_cell_angle_alpha   90.00000000
_cell_angle_beta   90.00000000
_cell_angle_gamma   90.00000000
_symmetry_Int_Tables_number   1
_chemical_formula_structural   Mo(PO4)2
_chemical_formula_sum   'Mo4 P8 O32'
_cell_volume   664.07512821
_cell_formula_units_Z   4
loop_
 _symmetry_equiv_pos_site_id
 _symmetry_equiv_pos_as_xyz
  1  'x, y, z'
loop_
 _atom_site_type_symbol
 _atom_site_label
 _atom_site_symmetry_multiplicity
 _atom_site_fract_x
 _atom_site_fract_y
 _atom_site_fract_z
 _atom_site_occupancy
  O  O0  1  0.555768  0.256021  0.205627  1
  O  O1  1  0.970580  0.493503  0.058009  1
  O  O2  1  0.965011  0.015880  0.058885  1
  O  O3  1  0.944232  0.743979  0.705627  1
  O  O4  1  0.029420  0.993502  0.441991  1
  O  O5  1  0.034990  0.515880  0.441115  1
  O  O6  1  0.055769  0.243978  0.794373  1
  O  O7  1  0.077859  0.249772  0.224198  1
  O  O8  1  0.151169  0.246178  0.010427  1
  O  O9  1  0.211786  0.245100  0.547841  1
  O  O10  1  0.244792  0.490148  0.840752  1
  O  O11  1  0.248556  0.977067  0.339901  1
  O  O12  1  0.251444  0.022932  0.839901  1
  O  O13  1  0.255209  0.509851  0.340752  1
  O  O14  1  0.288215  0.754899  0.047841  1
  O  O15  1  0.348832  0.753822  0.510427  1
  O  O16  1  0.422141  0.750228  0.724198  1
  O  O17  1  0.444232  0.756021  0.294373  1
  O  O18  1  0.465010  0.484119  0.941115  1
  O  O19  1  0.848832  0.746179  0.489573  1
  O  O20  1  0.529420  0.506499  0.558009  1
  O  O21  1  0.534989  0.984120  0.558885  1
  O  O22  1  0.922142  0.749773  0.275802  1
  O  O23  1  0.577859  0.250227  0.775802  1
  O  O24  1  0.651168  0.253821  0.989573  1
  O  O25  1  0.711786  0.254901  0.452159  1
  O  O26  1  0.744792  0.009852  0.159248  1
  O  O27  1  0.748556  0.522933  0.660099  1
  O  O28  1  0.751444  0.477067  0.160099  1
  O  O29  1  0.755208  0.990149  0.659248  1
  O  O30  1  0.788214  0.745099  0.952159  1
  O  O31  1  0.470581  0.006498  0.941991  1
  P  P32  1  0.462048  0.748863  0.594240  1
  P  P33  1  0.537952  0.248862  0.905760  1
  P  P34  1  0.665053  0.248913  0.138226  1
  P  P35  1  0.834947  0.751087  0.638226  1
  P  P36  1  0.037952  0.251137  0.094240  1
  P  P37  1  0.165052  0.251086  0.861774  1
  P  P38  1  0.334947  0.748914  0.361774  1
  P  P39  1  0.962048  0.751138  0.405760  1
  Mo  Mo40  1  0.846481  0.748293  0.093959  1
  Mo  Mo41  1  0.653519  0.251707  0.593959  1
  Mo  Mo42  1  0.346481  0.751706  0.906041  1
  Mo  Mo43  1  0.153519  0.248294  0.406041  1
