# generated using pymatgen
data_LiCrPO4
_symmetry_space_group_name_H-M   'P 1'
_cell_length_a   7.62313763
_cell_length_b   7.62609131
_cell_length_c   9.53012560
_cell_angle_alpha   90.02766323
_cell_angle_beta   89.98616307
_cell_angle_gamma   120.01281245
_symmetry_Int_Tables_number   1
_chemical_formula_structural   LiCrPO4
_chemical_formula_sum   'Li6 Cr6 P6 O24'
_cell_volume   479.74326016
_cell_formula_units_Z   6
loop_
 _symmetry_equiv_pos_site_id
 _symmetry_equiv_pos_as_xyz
  1  'x, y, z'
loop_
 _atom_site_type_symbol
 _atom_site_label
 _atom_site_symmetry_multiplicity
 _atom_site_fract_x
 _atom_site_fract_y
 _atom_site_fract_z
 _atom_site_occupancy
  Cr  Cr0  1  0.052443  0.583172  0.479018  1
  Cr  Cr1  1  0.532551  0.948799  0.478313  1
  Cr  Cr2  1  0.416652  0.468350  0.478715  1
  Cr  Cr3  1  0.467449  0.416249  0.978313  1
  Cr  Cr4  1  0.583348  0.051698  0.978715  1
  Cr  Cr5  1  0.947557  0.530729  0.979018  1
  Li  Li6  1  0.206525  0.958625  0.260187  1
  Li  Li7  1  0.041232  0.247924  0.260279  1
  Li  Li8  1  0.247988  0.041236  0.760239  1
  Li  Li9  1  0.752012  0.793249  0.260239  1
  Li  Li10  1  0.793475  0.752100  0.760187  1
  Li  Li11  1  0.958768  0.206691  0.760279  1
  O  O12  1  0.108040  0.886133  0.453580  1
  O  O13  1  0.160847  0.703206  0.133441  1
  O  O14  1  0.126836  0.491932  0.829079  1
  O  O15  1  0.364792  0.873311  0.828637  1
  O  O16  1  0.332424  0.666273  0.612892  1
  O  O17  1  0.333533  0.666655  0.350475  1
  O  O18  1  0.000151  0.000089  0.671767  1
  O  O19  1  0.113739  0.221922  0.453772  1
  O  O20  1  0.296258  0.457504  0.133277  1
  O  O21  1  0.542204  0.838747  0.133247  1
  O  O22  1  0.222121  0.113801  0.953901  1
  O  O23  1  0.508426  0.635600  0.828415  1
  O  O24  1  0.457796  0.296543  0.633247  1
  O  O25  1  0.777879  0.891681  0.453901  1
  O  O26  1  0.635208  0.508519  0.328637  1
  O  O27  1  0.491574  0.127173  0.328415  1
  O  O28  1  0.999849  0.999938  0.171767  1
  O  O29  1  0.666467  0.333124  0.850475  1
  O  O30  1  0.667576  0.333849  0.112892  1
  O  O31  1  0.891960  0.778094  0.953580  1
  O  O32  1  0.839153  0.542360  0.633441  1
  O  O33  1  0.703742  0.161245  0.633277  1
  O  O34  1  0.873164  0.365096  0.329079  1
  O  O35  1  0.886261  0.108183  0.953772  1
  P  P36  1  0.333172  0.666811  0.778000  1
  P  P37  1  0.333181  0.666538  0.180984  1
  P  P38  1  0.000076  0.999966  0.508952  1
  P  P39  1  0.999924  0.999892  0.008952  1
  P  P40  1  0.666819  0.333356  0.680984  1
  P  P41  1  0.666828  0.333638  0.278000  1
