# generated using pymatgen
data_Ni4(PO4)3
_symmetry_space_group_name_H-M   'P 1'
_cell_length_a   6.60803842
_cell_length_b   6.60803794
_cell_length_c   10.30423529
_cell_angle_alpha   71.30260106
_cell_angle_beta   71.30260247
_cell_angle_gamma   89.98515252
_symmetry_Int_Tables_number   1
_chemical_formula_structural   Ni4(PO4)3
_chemical_formula_sum   'Ni8 P6 O24'
_cell_volume   401.06437145
_cell_formula_units_Z   2
loop_
 _symmetry_equiv_pos_site_id
 _symmetry_equiv_pos_as_xyz
  1  'x, y, z'
loop_
 _atom_site_type_symbol
 _atom_site_label
 _atom_site_symmetry_multiplicity
 _atom_site_fract_x
 _atom_site_fract_y
 _atom_site_fract_z
 _atom_site_occupancy
  Ni  Ni0  1  0.128186  0.625018  0.249896  1
  Ni  Ni1  1  0.875007  0.871799  0.750009  1
  Ni  Ni2  1  0.773008  0.773049  0.453822  1
  Ni  Ni3  1  0.375018  0.378186  0.749896  1
  Ni  Ni4  1  0.226890  0.226950  0.546157  1
  Ni  Ni5  1  0.621799  0.125007  0.250009  1
  Ni  Ni6  1  0.976950  0.476890  0.046157  1
  Ni  Ni7  1  0.523049  0.023008  0.953822  1
  P  P8  1  0.374976  0.775013  0.749944  1
  P  P9  1  0.225009  0.125094  0.249895  1
  P  P10  1  -0.000079  0.000011  0.000064  1
  P  P11  1  0.875094  0.475009  0.749895  1
  P  P12  1  0.750011  0.249921  0.500064  1
  P  P13  1  0.525013  0.624976  0.249944  1
  O  O14  1  0.848346  0.986002  0.914006  1
  O  O15  1  0.440337  0.143866  0.122243  1
  O  O16  1  0.512401  0.264021  0.585950  1
  O  O17  1  0.309472  0.516207  0.377848  1
  O  O18  1  0.312789  0.106212  0.377723  1
  O  O19  1  0.629600  0.793332  0.291677  1
  O  O20  1  0.437463  0.733932  0.122172  1
  O  O21  1  0.014021  0.762401  0.085950  1
  O  O22  1  0.483932  0.687463  0.622172  1
  O  O23  1  0.856212  0.562789  0.877723  1
  O  O24  1  0.901618  0.149793  0.586039  1
  O  O25  1  0.084739  0.370482  0.708353  1
  O  O26  1  0.078732  0.915011  0.291647  1
  O  O27  1  0.266207  0.559472  0.877848  1
  O  O28  1  0.899793  0.151618  0.086039  1
  O  O29  1  0.543332  0.879600  0.791677  1
  O  O30  1  0.237508  0.100216  0.914151  1
  O  O31  1  0.120482  0.334739  0.208353  1
  O  O32  1  0.736002  0.098346  0.414006  1
  O  O33  1  0.665011  0.328732  0.791647  1
  O  O34  1  0.671123  0.456866  0.208405  1
  O  O35  1  0.893866  0.690337  0.622243  1
  O  O36  1  0.206866  0.921123  0.708405  1
  O  O37  1  0.850216  0.487508  0.414151  1
