# generated using pymatgen
data_Mo2P2O11
_symmetry_space_group_name_H-M   'P 1'
_cell_length_a   7.98157877
_cell_length_b   12.73704491
_cell_length_c   8.68231788
_cell_angle_alpha   90.00000000
_cell_angle_beta   108.25081225
_cell_angle_gamma   90.00000000
_symmetry_Int_Tables_number   1
_chemical_formula_structural   Mo2P2O11
_chemical_formula_sum   'Mo8 P8 O44'
_cell_volume   838.25697208
_cell_formula_units_Z   4
loop_
 _symmetry_equiv_pos_site_id
 _symmetry_equiv_pos_as_xyz
  1  'x, y, z'
loop_
 _atom_site_type_symbol
 _atom_site_label
 _atom_site_symmetry_multiplicity
 _atom_site_fract_x
 _atom_site_fract_y
 _atom_site_fract_z
 _atom_site_occupancy
  O  O0  1  0.815716  0.528246  0.434318  1
  O  O1  1  0.958138  0.750000  0.281061  1
  O  O2  1  0.886415  0.250000  0.416677  1
  O  O3  1  0.996386  0.501038  0.753968  1
  O  O4  1  0.996386  0.998962  0.753968  1
  O  O5  1  0.815716  0.971754  0.434318  1
  O  O6  1  0.901957  0.250000  0.105523  1
  O  O7  1  0.719031  0.903778  0.145762  1
  O  O8  1  0.098043  0.750000  0.894476  1
  O  O9  1  0.041862  0.250000  0.718938  1
  O  O10  1  0.113584  0.750000  0.583324  1
  O  O11  1  0.003614  0.498962  0.246032  1
  O  O12  1  0.003614  0.001038  0.246032  1
  O  O13  1  0.184283  0.028246  0.565682  1
  O  O14  1  0.184283  0.471754  0.565682  1
  O  O15  1  0.280969  0.096222  0.854237  1
  O  O16  1  0.280969  0.403778  0.854237  1
  O  O17  1  0.285462  0.595570  0.804599  1
  O  O18  1  0.285462  0.904430  0.804599  1
  O  O19  1  0.243168  0.651936  0.393624  1
  O  O20  1  0.243168  0.848065  0.393624  1
  O  O21  1  0.262995  0.153493  0.329411  1
  O  O22  1  0.262995  0.346507  0.329411  1
  O  O23  1  0.365827  0.250000  0.670147  1
  O  O24  1  0.237546  0.250000  0.065008  1
  O  O25  1  0.719031  0.596222  0.145762  1
  O  O26  1  0.474184  0.750000  0.702751  1
  O  O27  1  0.318079  0.523469  0.177959  1
  O  O28  1  0.318079  0.976531  0.177959  1
  O  O29  1  0.500000  0.000000  0.500000  1
  O  O30  1  0.500000  0.500000  0.500000  1
  O  O31  1  0.681921  0.023469  0.822041  1
  O  O32  1  0.681921  0.476531  0.822041  1
  O  O33  1  0.525816  0.250000  0.297248  1
  O  O34  1  0.459910  0.750000  0.014212  1
  O  O35  1  0.762454  0.750000  0.934992  1
  O  O36  1  0.634173  0.750000  0.329853  1
  O  O37  1  0.737004  0.653492  0.670588  1
  O  O38  1  0.737004  0.846508  0.670588  1
  O  O39  1  0.756833  0.151935  0.606376  1
  O  O40  1  0.756833  0.348065  0.606376  1
  O  O41  1  0.714537  0.095570  0.195401  1
  O  O42  1  0.714537  0.404430  0.195401  1
  O  O43  1  0.540090  0.250000  0.985788  1
  P  P44  1  0.183837  0.006983  0.736491  1
  P  P45  1  0.183837  0.493017  0.736491  1
  P  P46  1  0.138930  0.750000  0.412799  1
  P  P47  1  0.325528  0.250000  0.247540  1
  P  P48  1  0.674472  0.750000  0.752459  1
  P  P49  1  0.861069  0.250000  0.587200  1
  P  P50  1  0.816163  0.506983  0.263510  1
  P  P51  1  0.816163  0.993017  0.263510  1
  Mo  Mo52  1  0.730631  0.250000  0.182675  1
  Mo  Mo53  1  0.695098  0.750000  0.158794  1
  Mo  Mo54  1  0.734040  0.998710  0.649984  1
  Mo  Mo55  1  0.734040  0.501290  0.649984  1
  Mo  Mo56  1  0.265960  0.498710  0.350016  1
  Mo  Mo57  1  0.265960  0.001289  0.350016  1
  Mo  Mo58  1  0.304902  0.250000  0.841206  1
  Mo  Mo59  1  0.269368  0.750000  0.817324  1
