# generated using pymatgen
data_LiMo(PO4)2
_symmetry_space_group_name_H-M   'P 1'
_cell_length_a   5.01345157
_cell_length_b   17.23014840
_cell_length_c   7.14196188
_cell_angle_alpha   90.00000000
_cell_angle_beta   97.61525319
_cell_angle_gamma   90.00000000
_symmetry_Int_Tables_number   1
_chemical_formula_structural   LiMo(PO4)2
_chemical_formula_sum   'Li4 Mo4 P8 O32'
_cell_volume   611.49939236
_cell_formula_units_Z   4
loop_
 _symmetry_equiv_pos_site_id
 _symmetry_equiv_pos_as_xyz
  1  'x, y, z'
loop_
 _atom_site_type_symbol
 _atom_site_label
 _atom_site_symmetry_multiplicity
 _atom_site_fract_x
 _atom_site_fract_y
 _atom_site_fract_z
 _atom_site_occupancy
  Li  Li0  1  0.705249  0.612428  0.994857  1
  Li  Li1  1  0.205249  0.887572  0.494857  1
  Li  Li2  1  0.794751  0.112428  0.505143  1
  Li  Li3  1  0.294751  0.387572  0.005143  1
  Mo  Mo4  1  0.302007  0.369826  0.498814  1
  Mo  Mo5  1  0.802007  0.130174  0.998814  1
  Mo  Mo6  1  0.697993  0.630174  0.501186  1
  Mo  Mo7  1  0.197993  0.869826  0.001187  1
  P  P8  1  0.139856  0.712465  0.262331  1
  P  P9  1  0.256054  0.037874  0.778769  1
  P  P10  1  0.756054  0.462126  0.278769  1
  P  P11  1  0.243946  0.537874  0.721231  1
  P  P12  1  0.639856  0.787535  0.762331  1
  P  P13  1  0.743946  0.962126  0.221231  1
  P  P14  1  0.360144  0.212465  0.237669  1
  P  P15  1  0.860144  0.287535  0.737669  1
  O  O16  1  0.498494  0.800115  0.944977  1
  O  O17  1  0.010974  0.669819  0.093522  1
  O  O18  1  0.116991  0.068271  0.948694  1
  O  O19  1  0.352000  0.302586  0.271903  1
  O  O20  1  0.265106  0.946479  0.796337  1
  O  O21  1  0.370132  0.563962  0.910261  1
  O  O22  1  0.441818  0.933771  0.178910  1
  O  O23  1  0.383009  0.568271  0.551306  1
  O  O24  1  0.734894  0.053521  0.203663  1
  O  O25  1  0.501506  0.199885  0.055023  1
  O  O26  1  0.989026  0.330181  0.906478  1
  O  O27  1  0.129868  0.063962  0.589739  1
  O  O28  1  0.558182  0.066229  0.821090  1
  O  O29  1  0.616991  0.431729  0.448694  1
  O  O30  1  0.998494  0.699885  0.444977  1
  O  O31  1  0.629868  0.436038  0.089739  1
  O  O32  1  0.852000  0.197414  0.771903  1
  O  O33  1  0.148000  0.802586  0.228097  1
  O  O34  1  0.555617  0.311641  0.676953  1
  O  O35  1  0.510974  0.830181  0.593522  1
  O  O36  1  0.489026  0.169819  0.406478  1
  O  O37  1  0.648000  0.697414  0.728097  1
  O  O38  1  0.058182  0.433771  0.321090  1
  O  O39  1  0.941818  0.566229  0.678910  1
  O  O40  1  0.883009  0.931729  0.051306  1
  O  O41  1  0.444383  0.688359  0.323047  1
  O  O42  1  0.870132  0.936038  0.410261  1
  O  O43  1  0.055617  0.188359  0.176954  1
  O  O44  1  0.234894  0.446479  0.703663  1
  O  O45  1  0.001506  0.300115  0.555023  1
  O  O46  1  0.765106  0.553521  0.296337  1
  O  O47  1  0.944383  0.811641  0.823047  1
