# generated using pymatgen
data_MnP2O7
_symmetry_space_group_name_H-M   'P 1'
_cell_length_a   4.99224553
_cell_length_b   6.65000796
_cell_length_c   8.18796368
_cell_angle_alpha   68.46674124
_cell_angle_beta   88.52234885
_cell_angle_gamma   88.48834872
_symmetry_Int_Tables_number   1
_chemical_formula_structural   MnP2O7
_chemical_formula_sum   'Mn2 P4 O14'
_cell_volume   252.72966069
_cell_formula_units_Z   2
loop_
 _symmetry_equiv_pos_site_id
 _symmetry_equiv_pos_as_xyz
  1  'x, y, z'
loop_
 _atom_site_type_symbol
 _atom_site_label
 _atom_site_symmetry_multiplicity
 _atom_site_fract_x
 _atom_site_fract_y
 _atom_site_fract_z
 _atom_site_occupancy
  O  O0  1  0.566536  0.522213  0.320473  1
  O  O1  1  0.951316  0.050134  0.225046  1
  O  O2  1  0.048683  0.949866  0.774954  1
  O  O3  1  0.087528  0.649143  0.233117  1
  O  O4  1  0.174806  0.287452  0.487624  1
  O  O5  1  0.284820  0.338047  0.173962  1
  O  O6  1  0.306254  0.136717  0.975051  1
  O  O7  1  0.433464  0.477787  0.679527  1
  O  O8  1  0.825193  0.712548  0.512375  1
  O  O9  1  0.559094  0.056147  0.708226  1
  O  O10  1  0.912473  0.350857  0.766882  1
  O  O11  1  0.693745  0.863283  0.024949  1
  O  O12  1  0.715182  0.661952  0.826038  1
  O  O13  1  0.440908  0.943853  0.291774  1
  P  P14  1  0.276355  0.455255  0.314255  1
  P  P15  1  0.723646  0.544745  0.685745  1
  P  P16  1  0.243848  0.104145  0.164863  1
  P  P17  1  0.756151  0.895855  0.835137  1
  Mn  Mn18  1  0.759169  0.787096  0.267120  1
  Mn  Mn19  1  0.240830  0.212905  0.732880  1
