# generated using pymatgen
data_LiFeP2O7
_symmetry_space_group_name_H-M   'P 1'
_cell_length_a   9.18768463
_cell_length_b   8.37180458
_cell_length_c   6.70202633
_cell_angle_alpha   90.00000000
_cell_angle_beta   104.04530426
_cell_angle_gamma   90.00000000
_symmetry_Int_Tables_number   1
_chemical_formula_structural   LiFeP2O7
_chemical_formula_sum   'Li4 Fe4 P8 O28'
_cell_volume   500.09169929
_cell_formula_units_Z   4
loop_
 _symmetry_equiv_pos_site_id
 _symmetry_equiv_pos_as_xyz
  1  'x, y, z'
loop_
 _atom_site_type_symbol
 _atom_site_label
 _atom_site_symmetry_multiplicity
 _atom_site_fract_x
 _atom_site_fract_y
 _atom_site_fract_z
 _atom_site_occupancy
  Li  Li0  1  0.248981  0.076947  0.264344  1
  Li  Li1  1  0.751019  0.923054  0.735655  1
  Li  Li2  1  0.751019  0.576947  0.735655  1
  Li  Li3  1  0.248981  0.423053  0.264344  1
  O  O4  1  0.380208  0.099625  0.916383  1
  O  O5  1  0.948220  0.250000  0.761675  1
  O  O6  1  0.855503  0.096363  0.020697  1
  O  O7  1  0.855503  0.403637  0.020697  1
  O  O8  1  0.144497  0.596362  0.979302  1
  O  O9  1  0.144497  0.903637  0.979302  1
  O  O10  1  0.051780  0.750000  0.238326  1
  O  O11  1  0.108350  0.750000  0.612681  1
  O  O12  1  0.121350  0.099600  0.579302  1
  O  O13  1  0.121350  0.400400  0.579302  1
  O  O14  1  0.106047  0.250000  0.131494  1
  O  O15  1  0.558871  0.250000  0.743395  1
  O  O16  1  0.380208  0.400374  0.916383  1
  O  O17  1  0.391943  0.750000  0.884610  1
  O  O18  1  0.352808  0.596180  0.518312  1
  O  O19  1  0.878649  0.900401  0.420696  1
  O  O20  1  0.396448  0.250000  0.376584  1
  O  O21  1  0.441129  0.750000  0.256605  1
  O  O22  1  0.891650  0.250000  0.387320  1
  O  O23  1  0.603552  0.750000  0.623417  1
  O  O24  1  0.647192  0.096179  0.481688  1
  O  O25  1  0.647192  0.403820  0.481688  1
  O  O26  1  0.608057  0.250000  0.115391  1
  O  O27  1  0.619792  0.599625  0.083617  1
  O  O28  1  0.619792  0.900374  0.083617  1
  O  O29  1  0.893953  0.750000  0.868507  1
  O  O30  1  0.878649  0.599599  0.420696  1
  O  O31  1  0.352808  0.903820  0.518312  1
  P  P32  1  0.443228  0.750000  0.498678  1
  P  P33  1  0.556772  0.250000  0.501321  1
  P  P34  1  0.526284  0.750000  0.077398  1
  P  P35  1  0.972067  0.750000  0.422862  1
  P  P36  1  0.053287  0.750000  0.996871  1
  P  P37  1  0.027933  0.250000  0.577139  1
  P  P38  1  0.473716  0.250000  0.922601  1
  P  P39  1  0.946713  0.250000  0.003130  1
  Fe  Fe40  1  0.750232  0.440454  0.249079  1
  Fe  Fe41  1  0.750232  0.059547  0.249079  1
  Fe  Fe42  1  0.249768  0.940453  0.750922  1
  Fe  Fe43  1  0.249768  0.559547  0.750922  1
