# generated using pymatgen
data_Ni(WO4)2
_symmetry_space_group_name_H-M   'P 1'
_cell_length_a   5.20278333
_cell_length_b   5.69501212
_cell_length_c   5.89586537
_cell_angle_alpha   70.92151398
_cell_angle_beta   90.68343029
_cell_angle_gamma   117.27910511
_symmetry_Int_Tables_number   1
_chemical_formula_structural   Ni(WO4)2
_chemical_formula_sum   'Ni1 W2 O8'
_cell_volume   144.74636403
_cell_formula_units_Z   1
loop_
 _symmetry_equiv_pos_site_id
 _symmetry_equiv_pos_as_xyz
  1  'x, y, z'
loop_
 _atom_site_type_symbol
 _atom_site_label
 _atom_site_symmetry_multiplicity
 _atom_site_fract_x
 _atom_site_fract_y
 _atom_site_fract_z
 _atom_site_occupancy
  O  O0  1  0.471998  0.294032  0.677373  1
  O  O1  1  0.058711  0.762423  0.106020  1
  O  O2  1  0.065643  0.739883  0.506501  1
  O  O3  1  0.461118  0.738227  0.819950  1
  O  O4  1  0.528002  0.705968  0.322627  1
  O  O5  1  0.934357  0.260117  0.493499  1
  O  O6  1  0.538882  0.261773  0.180050  1
  O  O7  1  0.941289  0.237577  0.893980  1
  Ni  Ni8  1  0.500000  0.000000  0.000000  1
  W  W9  1  0.264410  0.516403  0.653761  1
  W  W10  1  0.735590  0.483597  0.346239  1
