# generated using pymatgen
data_CoP2O7
_symmetry_space_group_name_H-M   'P 1'
_cell_length_a   5.15458513
_cell_length_b   6.75785288
_cell_length_c   8.27836521
_cell_angle_alpha   68.95281278
_cell_angle_beta   87.88916299
_cell_angle_gamma   88.45812847
_symmetry_Int_Tables_number   1
_chemical_formula_structural   CoP2O7
_chemical_formula_sum   'Co2 P4 O14'
_cell_volume   268.91794839
_cell_formula_units_Z   2
loop_
 _symmetry_equiv_pos_site_id
 _symmetry_equiv_pos_as_xyz
  1  'x, y, z'
loop_
 _atom_site_type_symbol
 _atom_site_label
 _atom_site_symmetry_multiplicity
 _atom_site_fract_x
 _atom_site_fract_y
 _atom_site_fract_z
 _atom_site_occupancy
  O  O0  1  0.556037  0.039955  0.715702  1
  O  O1  1  0.964711  0.048039  0.233353  1
  O  O2  1  0.035283  0.951954  0.766648  1
  O  O3  1  0.086461  0.637056  0.243212  1
  O  O4  1  0.194537  0.286523  0.482276  1
  O  O5  1  0.288988  0.342577  0.167104  1
  O  O6  1  0.281462  0.128535  0.978694  1
  O  O7  1  0.443971  0.960038  0.284299  1
  O  O8  1  0.805470  0.713489  0.517720  1
  O  O9  1  0.556982  0.530538  0.310101  1
  O  O10  1  0.913547  0.362939  0.756785  1
  O  O11  1  0.718537  0.871473  0.021297  1
  O  O12  1  0.711012  0.657418  0.832900  1
  O  O13  1  0.443009  0.469462  0.689901  1
  P  P14  1  0.281110  0.454720  0.309624  1
  P  P15  1  0.718884  0.545283  0.690381  1
  P  P16  1  0.243801  0.107960  0.167454  1
  P  P17  1  0.756201  0.892043  0.832545  1
  Co  Co18  1  0.759392  0.785358  0.270927  1
  Co  Co19  1  0.240605  0.214642  0.729073  1
