# generated using pymatgen
data_NiPO4
_symmetry_space_group_name_H-M   'P 1'
_cell_length_a   7.38733061
_cell_length_b   7.39180359
_cell_length_c   9.52305955
_cell_angle_alpha   89.98472631
_cell_angle_beta   90.00764152
_cell_angle_gamma   120.02003153
_symmetry_Int_Tables_number   1
_chemical_formula_structural   NiPO4
_chemical_formula_sum   'Ni6 P6 O24'
_cell_volume   450.25378576
_cell_formula_units_Z   6
loop_
 _symmetry_equiv_pos_site_id
 _symmetry_equiv_pos_as_xyz
  1  'x, y, z'
loop_
 _atom_site_type_symbol
 _atom_site_label
 _atom_site_symmetry_multiplicity
 _atom_site_fract_x
 _atom_site_fract_y
 _atom_site_fract_z
 _atom_site_occupancy
  O  O0  1  0.471572  0.335911  0.619855  1
  O  O1  1  0.891913  0.417946  0.317885  1
  O  O2  1  0.664620  0.135269  0.620574  1
  O  O3  1  0.864825  0.528735  0.620418  1
  O  O4  1  0.876783  0.768592  0.961607  1
  O  O5  1  1.000038  0.999986  0.170859  1
  O  O6  1  0.123218  0.891808  0.461608  1
  O  O7  1  0.135175  0.663909  0.120418  1
  O  O8  1  0.108087  0.526034  0.817885  1
  O  O9  1  0.417330  0.891971  0.817724  1
  O  O10  1  0.333368  0.666733  0.600507  1
  O  O11  1  -0.000039  0.999947  0.670858  1
  O  O12  1  0.333443  0.666698  0.339188  1
  O  O13  1  0.108191  0.231321  0.461528  1
  O  O14  1  0.666557  0.333256  0.839188  1
  O  O15  1  0.528429  0.864340  0.119856  1
  O  O16  1  0.231468  0.108138  0.961732  1
  O  O17  1  0.473581  0.582373  0.818471  1
  O  O18  1  0.891809  0.123130  0.961528  1
  O  O19  1  0.768533  0.876672  0.461733  1
  O  O20  1  0.582670  0.474641  0.317724  1
  O  O21  1  0.526418  0.108792  0.318472  1
  O  O22  1  0.666632  0.333365  0.100507  1
  O  O23  1  0.335380  0.470649  0.120575  1
  P  P24  1  0.999905  0.999909  0.007013  1
  P  P25  1  0.333547  0.666885  0.767730  1
  P  P26  1  0.333546  0.666563  0.172203  1
  P  P27  1  0.666453  0.333338  0.267730  1
  P  P28  1  0.666456  0.333018  0.672204  1
  P  P29  1  0.000095  1.000004  0.507013  1
  Ni  Ni30  1  0.929961  0.528800  0.967235  1
  Ni  Ni31  1  0.598630  0.069793  0.967078  1
  Ni  Ni32  1  0.471034  0.401262  0.967315  1
  Ni  Ni33  1  0.401369  0.471163  0.467077  1
  Ni  Ni34  1  0.528967  0.930229  0.467314  1
  Ni  Ni35  1  0.070040  0.598839  0.467235  1
