# generated using pymatgen
data_LiCo(PO3)4
_symmetry_space_group_name_H-M   'P 1'
_cell_length_a   7.28875839
_cell_length_b   7.28875813
_cell_length_c   9.73968188
_cell_angle_alpha   82.88451264
_cell_angle_beta   68.32510483
_cell_angle_gamma   109.93438096
_symmetry_Int_Tables_number   1
_chemical_formula_structural   LiCo(PO3)4
_chemical_formula_sum   'Li2 Co2 P8 O24'
_cell_volume   433.16229145
_cell_formula_units_Z   2
loop_
 _symmetry_equiv_pos_site_id
 _symmetry_equiv_pos_as_xyz
  1  'x, y, z'
loop_
 _atom_site_type_symbol
 _atom_site_label
 _atom_site_symmetry_multiplicity
 _atom_site_fract_x
 _atom_site_fract_y
 _atom_site_fract_z
 _atom_site_occupancy
  Li  Li0  1  0.205642  0.955642  0.750000  1
  Li  Li1  1  0.794358  0.044358  0.250000  1
  Co  Co2  1  0.000000  0.500000  -0.000000  1
  Co  Co3  1  0.000000  0.000000  0.500000  1
  P  P4  1  0.000613  0.684065  0.303067  1
  P  P5  1  0.730701  0.268335  0.528307  1
  P  P6  1  0.703356  0.740992  0.028307  1
  P  P7  1  0.999387  0.315935  0.696933  1
  P  P8  1  0.487131  0.303680  0.196933  1
  P  P9  1  0.296644  0.259008  0.971693  1
  P  P10  1  0.512869  0.696320  0.803067  1
  P  P11  1  0.269299  0.731665  0.471693  1
  O  O12  1  0.110788  0.807503  0.572877  1
  O  O13  1  0.296274  0.702071  0.829989  1
  O  O14  1  0.042067  0.658321  0.145285  1
  O  O15  1  0.426373  0.221011  0.067900  1
  O  O16  1  0.514756  0.534233  0.165467  1
  O  O17  1  0.303608  0.187353  0.354715  1
  O  O18  1  0.889212  0.192497  0.427123  1
  O  O19  1  0.199700  0.680223  0.334533  1
  O  O20  1  0.032060  0.126264  0.670011  1
  O  O21  1  0.800300  0.319777  0.665467  1
  O  O22  1  0.788911  0.494273  0.432100  1
  O  O23  1  0.495213  0.149871  0.593024  1
  O  O24  1  0.242896  0.088237  0.906976  1
  O  O25  1  0.703726  0.297929  0.170011  1
  O  O26  1  0.967940  0.873736  0.329989  1
  O  O27  1  0.880380  0.683665  0.927123  1
  O  O28  1  0.211089  0.505727  0.567900  1
  O  O29  1  0.485244  0.465767  0.834533  1
  O  O30  1  0.504787  0.850129  0.406976  1
  O  O31  1  0.757104  0.911763  0.093024  1
  O  O32  1  0.957933  0.341679  0.854715  1
  O  O33  1  0.573627  0.778989  0.932100  1
  O  O34  1  0.119620  0.316335  0.072877  1
  O  O35  1  0.696392  0.812647  0.645285  1
