# generated using pymatgen
data_LiCo(PO3)4
_symmetry_space_group_name_H-M   'P 1'
_cell_length_a   5.16095441
_cell_length_b   10.45004838
_cell_length_c   10.45004812
_cell_angle_alpha   71.08171571
_cell_angle_beta   98.23731975
_cell_angle_gamma   98.23732025
_symmetry_Int_Tables_number   1
_chemical_formula_structural   LiCo(PO3)4
_chemical_formula_sum   'Li2 Co2 P8 O24'
_cell_volume   524.82038680
_cell_formula_units_Z   2
loop_
 _symmetry_equiv_pos_site_id
 _symmetry_equiv_pos_as_xyz
  1  'x, y, z'
loop_
 _atom_site_type_symbol
 _atom_site_label
 _atom_site_symmetry_multiplicity
 _atom_site_fract_x
 _atom_site_fract_y
 _atom_site_fract_z
 _atom_site_occupancy
  Li  Li0  1  0.582248  0.579025  0.579025  1
  Li  Li1  1  0.417752  0.420975  0.420975  1
  Co  Co2  1  0.000000  0.000000  0.500000  1
  Co  Co3  1  0.000000  0.500000  0.000000  1
  P  P4  1  0.530263  0.940234  0.695855  1
  P  P5  1  0.824093  0.631235  0.214543  1
  P  P6  1  0.469737  0.059766  0.304145  1
  P  P7  1  0.175907  0.368765  0.785457  1
  P  P8  1  0.824093  0.214543  0.631235  1
  P  P9  1  0.530263  0.695855  0.940234  1
  P  P10  1  0.175907  0.785457  0.368765  1
  P  P11  1  0.469737  0.304145  0.059766  1
  O  O12  1  0.374969  0.912765  0.290542  1
  O  O13  1  0.686684  0.603132  0.904286  1
  O  O14  1  0.323960  0.440741  0.666550  1
  O  O15  1  0.000000  0.234866  0.765134  1
  O  O16  1  0.765723  0.074463  0.334136  1
  O  O17  1  0.000000  0.765134  0.234866  1
  O  O18  1  0.625031  0.709458  0.087235  1
  O  O19  1  0.005671  0.448710  0.831558  1
  O  O20  1  0.765723  0.334136  0.074463  1
  O  O21  1  0.994329  0.551290  0.168442  1
  O  O22  1  0.994329  0.168442  0.551290  1
  O  O23  1  0.313316  0.396868  0.095714  1
  O  O24  1  0.374969  0.290542  0.912765  1
  O  O25  1  0.601528  0.850860  0.850860  1
  O  O26  1  0.676040  0.333450  0.559259  1
  O  O27  1  0.313316  0.095714  0.396868  1
  O  O28  1  0.686684  0.904286  0.603132  1
  O  O29  1  0.005671  0.831558  0.448710  1
  O  O30  1  0.625031  0.087235  0.709458  1
  O  O31  1  0.234277  0.665864  0.925537  1
  O  O32  1  0.398472  0.149140  0.149140  1
  O  O33  1  0.234277  0.925537  0.665864  1
  O  O34  1  0.323960  0.666550  0.440741  1
  O  O35  1  0.676040  0.559259  0.333450  1
