# generated using pymatgen
data_Ti(FeO2)4
_symmetry_space_group_name_H-M   'P 1'
_cell_length_a   5.90110143
_cell_length_b   5.89081376
_cell_length_c   5.82155652
_cell_angle_alpha   59.60567619
_cell_angle_beta   59.17949183
_cell_angle_gamma   60.05765541
_symmetry_Int_Tables_number   1
_chemical_formula_structural   Ti(FeO2)4
_chemical_formula_sum   'Ti1 Fe4 O8'
_cell_volume   141.82633981
_cell_formula_units_Z   1
loop_
 _symmetry_equiv_pos_site_id
 _symmetry_equiv_pos_as_xyz
  1  'x, y, z'
loop_
 _atom_site_type_symbol
 _atom_site_label
 _atom_site_symmetry_multiplicity
 _atom_site_fract_x
 _atom_site_fract_y
 _atom_site_fract_z
 _atom_site_occupancy
  Ti  Ti0  1  0.500000  0.500000  0.000000  1
  Fe  Fe1  1  0.145295  0.116143  0.122420  1
  Fe  Fe2  1  0.500000  0.000000  0.500000  1
  Fe  Fe3  1  0.500000  0.500000  0.500000  1
  Fe  Fe4  1  0.854705  0.883857  0.877580  1
  O  O5  1  0.281162  0.245177  0.251377  1
  O  O6  1  0.281162  0.722285  0.251377  1
  O  O7  1  0.292247  0.242269  0.723216  1
  O  O8  1  0.731640  0.258237  0.251886  1
  O  O9  1  0.268360  0.741763  0.748114  1
  O  O10  1  0.707753  0.757731  0.276784  1
  O  O11  1  0.718839  0.277715  0.748623  1
  O  O12  1  0.718839  0.754823  0.748623  1
