# generated using pymatgen
data_LiNi(PO3)4
_symmetry_space_group_name_H-M   'P 1'
_cell_length_a   8.24762003
_cell_length_b   8.24762019
_cell_length_c   7.81759166
_cell_angle_alpha   82.88446897
_cell_angle_beta   97.11553122
_cell_angle_gamma   69.73591885
_symmetry_Int_Tables_number   1
_chemical_formula_structural   LiNi(PO3)4
_chemical_formula_sum   'Li2 Ni2 P8 O24'
_cell_volume   487.01301381
_cell_formula_units_Z   2
loop_
 _symmetry_equiv_pos_site_id
 _symmetry_equiv_pos_as_xyz
  1  'x, y, z'
loop_
 _atom_site_type_symbol
 _atom_site_label
 _atom_site_symmetry_multiplicity
 _atom_site_fract_x
 _atom_site_fract_y
 _atom_site_fract_z
 _atom_site_occupancy
  Li  Li0  1  0.807928  0.499554  0.740350  1
  Li  Li1  1  0.500446  0.192072  0.240350  1
  Ni  Ni2  1  0.869331  0.873006  0.254645  1
  Ni  Ni3  1  0.126994  0.130669  0.754645  1
  P  P4  1  0.422343  0.233959  0.617722  1
  P  P5  1  0.206703  0.949086  0.180921  1
  P  P6  1  0.790589  0.052181  0.833864  1
  P  P7  1  0.947819  0.209411  0.333864  1
  P  P8  1  0.766041  0.577657  0.117722  1
  P  P9  1  0.050914  0.793297  0.680921  1
  P  P10  1  0.576779  0.757385  0.365405  1
  P  P11  1  0.242615  0.423221  0.865405  1
  O  O12  1  0.631457  0.154432  0.677959  1
  O  O13  1  0.877573  0.873858  0.763552  1
  O  O14  1  0.601293  0.633560  0.218250  1
  O  O15  1  0.910211  0.158487  0.834155  1
  O  O16  1  0.636530  0.910579  0.305889  1
  O  O17  1  0.901491  0.647760  0.198445  1
  O  O18  1  0.126142  0.122427  0.263552  1
  O  O19  1  0.841513  0.089789  0.334155  1
  O  O20  1  0.648335  0.655976  0.544335  1
  O  O21  1  0.269499  0.989687  0.015119  1
  O  O22  1  0.159439  0.632130  0.838041  1
  O  O23  1  0.148097  0.919308  0.669512  1
  O  O24  1  0.845568  0.368543  0.177959  1
  O  O25  1  0.089421  0.363470  0.805889  1
  O  O26  1  0.391470  0.290644  0.425957  1
  O  O27  1  0.979601  0.272501  0.501977  1
  O  O28  1  0.344024  0.351665  0.044335  1
  O  O29  1  0.727499  0.020399  0.001977  1
  O  O30  1  0.010313  0.730501  0.515119  1
  O  O31  1  0.080692  0.851903  0.169512  1
  O  O32  1  0.366440  0.398707  0.718250  1
  O  O33  1  0.367870  0.840561  0.338041  1
  O  O34  1  0.352240  0.098509  0.698445  1
  O  O35  1  0.709356  0.608530  0.925957  1
