# generated using pymatgen
data_LiMoO2
_symmetry_space_group_name_H-M   'P 1'
_cell_length_a   5.26281731
_cell_length_b   6.36081823
_cell_length_c   5.99654927
_cell_angle_alpha   122.04657964
_cell_angle_beta   90.00000000
_cell_angle_gamma   90.00000000
_symmetry_Int_Tables_number   1
_chemical_formula_structural   LiMoO2
_chemical_formula_sum   'Li4 Mo4 O8'
_cell_volume   170.15015466
_cell_formula_units_Z   4
loop_
 _symmetry_equiv_pos_site_id
 _symmetry_equiv_pos_as_xyz
  1  'x, y, z'
loop_
 _atom_site_type_symbol
 _atom_site_label
 _atom_site_symmetry_multiplicity
 _atom_site_fract_x
 _atom_site_fract_y
 _atom_site_fract_z
 _atom_site_occupancy
  Li  Li0  1  0.001570  0.253564  0.500981  1
  Li  Li1  1  0.998430  0.746436  0.499019  1
  Li  Li2  1  0.501570  0.246436  0.999019  1
  Li  Li3  1  0.498430  0.753564  0.000981  1
  Mo  Mo4  1  0.500797  0.250349  0.500660  1
  Mo  Mo5  1  0.999203  0.750349  0.000660  1
  Mo  Mo6  1  0.000797  0.249651  0.999340  1
  Mo  Mo7  1  0.499203  0.749651  0.499340  1
  O  O8  1  0.770222  0.414064  0.828600  1
  O  O9  1  0.268383  0.585460  0.671055  1
  O  O10  1  0.270222  0.085936  0.671400  1
  O  O11  1  0.768383  0.914540  0.828945  1
  O  O12  1  0.231617  0.085460  0.171055  1
  O  O13  1  0.729778  0.914064  0.328600  1
  O  O14  1  0.731617  0.414540  0.328945  1
  O  O15  1  0.229778  0.585936  0.171400  1
