# generated using pymatgen
data_Li3Mn3(PO4)4
_symmetry_space_group_name_H-M   'P 1'
_cell_length_a   8.41648968
_cell_length_b   11.69418303
_cell_length_c   6.14784223
_cell_angle_alpha   90.00000000
_cell_angle_beta   99.94419525
_cell_angle_gamma   90.00000000
_symmetry_Int_Tables_number   1
_chemical_formula_structural   Li3Mn3(PO4)4
_chemical_formula_sum   'Li6 Mn6 P8 O32'
_cell_volume   596.00434730
_cell_formula_units_Z   2
loop_
 _symmetry_equiv_pos_site_id
 _symmetry_equiv_pos_as_xyz
  1  'x, y, z'
loop_
 _atom_site_type_symbol
 _atom_site_label
 _atom_site_symmetry_multiplicity
 _atom_site_fract_x
 _atom_site_fract_y
 _atom_site_fract_z
 _atom_site_occupancy
  Li  Li0  1  0.069816  0.622935  0.621255  1
  Li  Li1  1  0.043401  0.917919  0.100908  1
  Li  Li2  1  0.306475  0.150786  0.047481  1
  Li  Li3  1  0.693525  0.650786  0.452520  1
  Li  Li4  1  0.930185  0.122935  0.878745  1
  Li  Li5  1  0.956599  0.417919  0.399093  1
  O  O6  1  0.135563  0.438478  0.119472  1
  O  O7  1  0.902838  0.168781  0.386094  1
  O  O8  1  0.927449  0.956419  0.807240  1
  O  O9  1  0.918111  0.315236  0.897484  1
  O  O10  1  0.864437  0.938479  0.380529  1
  O  O11  1  0.838797  0.760120  0.087821  1
  O  O12  1  0.072551  0.456419  0.692760  1
  O  O13  1  0.081889  0.815235  0.602516  1
  O  O14  1  0.102262  0.092819  0.149559  1
  O  O15  1  0.162747  0.059910  0.565391  1
  O  O16  1  0.097162  0.668781  0.113907  1
  O  O17  1  0.214817  0.286736  0.869919  1
  O  O18  1  0.897738  0.592819  0.350442  1
  O  O19  1  0.271186  0.914900  0.967966  1
  O  O20  1  0.161203  0.260120  0.412179  1
  O  O21  1  0.321257  0.619161  0.896030  1
  O  O22  1  0.279517  0.581482  0.500830  1
  O  O23  1  0.329643  0.858611  0.362468  1
  O  O24  1  0.452989  0.164925  0.809455  1
  O  O25  1  0.479354  0.454206  0.756574  1
  O  O26  1  0.837253  0.559910  0.934608  1
  O  O27  1  0.520646  0.954206  0.743427  1
  O  O28  1  0.547010  0.664925  0.690546  1
  O  O29  1  0.485764  0.023811  0.228034  1
  O  O30  1  0.514236  0.523811  0.271966  1
  O  O31  1  0.537650  0.815177  0.119701  1
  O  O32  1  0.678743  0.119161  0.603969  1
  O  O33  1  0.728814  0.414901  0.532034  1
  O  O34  1  0.670357  0.358611  0.137533  1
  O  O35  1  0.785183  0.786736  0.630080  1
  O  O36  1  0.720483  0.081481  -0.000829  1
  O  O37  1  0.462350  0.315177  0.380300  1
  P  P38  1  0.917394  0.638180  0.121974  1
  P  P39  1  0.917026  0.880309  0.605137  1
  P  P40  1  0.588890  0.402686  0.328908  1
  P  P41  1  0.589014  0.081830  0.787978  1
  P  P42  1  0.411110  0.902686  0.171093  1
  P  P43  1  0.410987  0.581830  0.712022  1
  P  P44  1  0.082974  0.380308  0.894862  1
  P  P45  1  0.082606  0.138180  0.378025  1
  Mn  Mn46  1  0.281501  0.908597  0.651685  1
  Mn  Mn47  1  0.288969  0.578377  0.188485  1
  Mn  Mn48  1  0.336906  0.307611  0.628048  1
  Mn  Mn49  1  0.663094  0.807610  0.871952  1
  Mn  Mn50  1  0.718499  0.408596  0.848314  1
  Mn  Mn51  1  0.711031  0.078377  0.311514  1
