# generated using pymatgen
data_Li2Co(PO3)4
_symmetry_space_group_name_H-M   'P 1'
_cell_length_a   7.56613762
_cell_length_b   9.28873743
_cell_length_c   7.78967960
_cell_angle_alpha   90.00000000
_cell_angle_beta   111.56779074
_cell_angle_gamma   90.00000000
_symmetry_Int_Tables_number   1
_chemical_formula_structural   Li2Co(PO3)4
_chemical_formula_sum   'Li4 Co2 P8 O24'
_cell_volume   509.12644993
_cell_formula_units_Z   2
loop_
 _symmetry_equiv_pos_site_id
 _symmetry_equiv_pos_as_xyz
  1  'x, y, z'
loop_
 _atom_site_type_symbol
 _atom_site_label
 _atom_site_symmetry_multiplicity
 _atom_site_fract_x
 _atom_site_fract_y
 _atom_site_fract_z
 _atom_site_occupancy
  Li  Li0  1  0.871940  0.339202  0.653411  1
  Li  Li1  1  0.628060  0.839202  0.846589  1
  Li  Li2  1  0.371940  0.160798  0.153411  1
  Li  Li3  1  0.128060  0.660798  0.346589  1
  Co  Co4  1  0.000000  0.000000  0.000000  1
  Co  Co5  1  0.500000  0.500000  0.500000  1
  P  P6  1  0.312122  0.091227  0.767782  1
  P  P7  1  0.664215  0.286570  0.878475  1
  P  P8  1  0.812122  0.408773  0.267782  1
  P  P9  1  0.187878  0.591227  0.732218  1
  P  P10  1  0.335785  0.713430  0.121525  1
  P  P11  1  0.164215  0.213430  0.378475  1
  P  P12  1  0.687878  0.908773  0.232218  1
  P  P13  1  0.835785  0.786570  0.621525  1
  O  O14  1  0.413547  0.955272  0.765612  1
  O  O15  1  0.586453  0.044728  0.234388  1
  O  O16  1  0.812399  0.173144  0.913706  1
  O  O17  1  0.669006  0.396770  0.737762  1
  O  O18  1  0.548390  0.771109  0.184389  1
  O  O19  1  0.169929  0.131416  0.561832  1
  O  O20  1  0.330071  0.631416  0.938168  1
  O  O21  1  0.330994  0.603230  0.262238  1
  O  O22  1  0.698544  0.393245  0.390758  1
  O  O23  1  0.830071  0.868584  0.438168  1
  O  O24  1  0.451610  0.228891  0.815611  1
  O  O25  1  0.198544  0.106755  0.890758  1
  O  O26  1  0.801456  0.893245  0.109242  1
  O  O27  1  0.169006  0.103230  0.237762  1
  O  O28  1  0.830994  0.896770  0.762238  1
  O  O29  1  0.312399  0.326856  0.413706  1
  O  O30  1  0.086453  0.455272  0.734388  1
  O  O31  1  0.913547  0.544728  0.265612  1
  O  O32  1  0.687601  0.673144  0.586294  1
  O  O33  1  0.187601  0.826856  0.086294  1
  O  O34  1  0.301456  0.606755  0.609242  1
  O  O35  1  0.669929  0.368584  0.061832  1
  O  O36  1  0.048390  0.728891  0.684389  1
  O  O37  1  0.951610  0.271109  0.315611  1
