# generated using pymatgen
data_Mn5(P3O11)2
_symmetry_space_group_name_H-M   'P 1'
_cell_length_a   12.72649897
_cell_length_b   6.78180818
_cell_length_c   10.71651202
_cell_angle_alpha   90.00000000
_cell_angle_beta   105.63209305
_cell_angle_gamma   90.00000000
_symmetry_Int_Tables_number   1
_chemical_formula_structural   Mn5(P3O11)2
_chemical_formula_sum   'Mn10 P12 O44'
_cell_volume   890.71651812
_cell_formula_units_Z   2
loop_
 _symmetry_equiv_pos_site_id
 _symmetry_equiv_pos_as_xyz
  1  'x, y, z'
loop_
 _atom_site_type_symbol
 _atom_site_label
 _atom_site_symmetry_multiplicity
 _atom_site_fract_x
 _atom_site_fract_y
 _atom_site_fract_z
 _atom_site_occupancy
  Mn  Mn0  1  0.339264  0.002746  0.793888  1
  Mn  Mn1  1  0.660736  0.997254  0.206112  1
  Mn  Mn2  1  0.137780  0.747439  0.790477  1
  Mn  Mn3  1  0.660736  0.502746  0.706112  1
  Mn  Mn4  1  0.862220  0.247439  0.709523  1
  Mn  Mn5  1  0.862220  0.252561  0.209523  1
  Mn  Mn6  1  0.137780  0.752561  0.290477  1
  Mn  Mn7  1  0.000000  0.500000  0.500000  1
  Mn  Mn8  1  0.000000  0.000000  0.000000  1
  Mn  Mn9  1  0.339264  0.497254  0.293888  1
  P  P10  1  0.415134  0.299525  0.583105  1
  P  P11  1  0.747042  0.384366  0.428366  1
  P  P12  1  0.584866  0.700475  0.416895  1
  P  P13  1  0.252958  0.884366  0.071634  1
  P  P14  1  0.584866  0.799525  0.916895  1
  P  P15  1  0.252958  0.615634  0.571634  1
  P  P16  1  0.084841  0.263051  0.770212  1
  P  P17  1  0.915159  0.763051  0.729788  1
  P  P18  1  0.915159  0.736949  0.229788  1
  P  P19  1  0.747042  0.115634  0.928366  1
  P  P20  1  0.084841  0.236949  0.270212  1
  P  P21  1  0.415134  0.200475  0.083105  1
  O  O22  1  0.755899  0.272893  0.827707  1
  O  O23  1  0.005431  0.704957  0.366659  1
  O  O24  1  0.843436  0.528526  0.449841  1
  O  O25  1  0.536123  0.183311  0.148078  1
  O  O26  1  0.156564  0.471474  0.550159  1
  O  O27  1  0.851249  0.947651  0.681294  1
  O  O28  1  0.738686  0.296358  0.558757  1
  O  O29  1  0.154762  0.081578  0.766375  1
  O  O30  1  0.148751  0.447651  0.818706  1
  O  O31  1  0.003582  0.779520  0.150595  1
  O  O32  1  0.383494  0.302674  0.434700  1
  O  O33  1  0.536123  0.316689  0.648078  1
  O  O34  1  0.994569  0.204957  0.133341  1
  O  O35  1  0.003582  0.720480  0.650595  1
  O  O36  1  0.851249  0.552349  0.181294  1
  O  O37  1  0.362604  0.501178  0.631047  1
  O  O38  1  0.616506  0.802674  0.065300  1
  O  O39  1  0.996418  0.220480  0.849405  1
  O  O40  1  0.845238  0.581578  0.733625  1
  O  O41  1  0.755899  0.227107  0.327707  1
  O  O42  1  0.148751  0.052349  0.318706  1
  O  O43  1  0.637644  0.627799  0.867602  1
  O  O44  1  0.156564  0.028526  0.050159  1
  O  O45  1  0.244101  0.727107  0.172293  1
  O  O46  1  0.244101  0.772893  0.672293  1
  O  O47  1  0.616506  0.697326  0.565300  1
  O  O48  1  0.637396  0.498822  0.368953  1
  O  O49  1  0.362604  0.998822  0.131047  1
  O  O50  1  0.362357  0.127799  0.632398  1
  O  O51  1  0.261314  0.796358  0.941243  1
  O  O52  1  0.845238  0.918422  0.233625  1
  O  O53  1  0.996418  0.279520  0.349405  1
  O  O54  1  0.843436  0.971474  0.949841  1
  O  O55  1  0.005431  0.795043  0.866659  1
  O  O56  1  0.637644  0.872201  0.367602  1
  O  O57  1  0.994569  0.295043  0.633341  1
  O  O58  1  0.261314  0.703642  0.441243  1
  O  O59  1  0.383494  0.197326  0.934700  1
  O  O60  1  0.463877  0.816689  0.851922  1
  O  O61  1  0.738686  0.203642  0.058757  1
  O  O62  1  0.362357  0.372201  0.132398  1
  O  O63  1  0.463877  0.683311  0.351922  1
  O  O64  1  0.154762  0.418422  0.266375  1
  O  O65  1  0.637396  0.001178  0.868953  1
