# generated using pymatgen
data_LiMnPO4
_symmetry_space_group_name_H-M   'P 1'
_cell_length_a   7.58906163
_cell_length_b   7.58896889
_cell_length_c   9.69966192
_cell_angle_alpha   90.00118221
_cell_angle_beta   89.99941275
_cell_angle_gamma   119.99959364
_symmetry_Int_Tables_number   1
_chemical_formula_structural   LiMnPO4
_chemical_formula_sum   'Li6 Mn6 P6 O24'
_cell_volume   483.79331107
_cell_formula_units_Z   6
loop_
 _symmetry_equiv_pos_site_id
 _symmetry_equiv_pos_as_xyz
  1  'x, y, z'
loop_
 _atom_site_type_symbol
 _atom_site_label
 _atom_site_symmetry_multiplicity
 _atom_site_fract_x
 _atom_site_fract_y
 _atom_site_fract_z
 _atom_site_occupancy
  Li  Li0  1  0.205221  0.955450  0.259830  1
  Li  Li1  1  0.044566  0.249789  0.259834  1
  Li  Li2  1  0.249768  0.044540  0.759842  1
  Li  Li3  1  0.750232  0.794771  0.259842  1
  Li  Li4  1  0.794779  0.750228  0.759830  1
  Li  Li5  1  0.955434  0.205223  0.759834  1
  Mn  Mn6  1  0.042234  0.580930  0.485677  1
  Mn  Mn7  1  0.538680  0.957724  0.485668  1
  Mn  Mn8  1  0.419020  0.461286  0.485692  1
  Mn  Mn9  1  0.461320  0.419044  0.985668  1
  Mn  Mn10  1  0.580980  0.042266  0.985692  1
  Mn  Mn11  1  0.957766  0.538696  0.985677  1
  O  O12  1  0.097641  0.876131  0.448511  1
  O  O13  1  0.179018  0.728844  0.137677  1
  O  O14  1  0.122836  0.496081  0.824413  1
  O  O15  1  0.373262  0.877180  0.824437  1
  O  O16  1  0.333334  0.666681  0.611266  1
  O  O17  1  0.333317  0.666664  0.352257  1
  O  O18  1  0.000007  0.000005  0.165015  1
  O  O19  1  0.123839  0.221514  0.448524  1
  O  O20  1  0.271175  0.450166  0.137683  1
  O  O21  1  0.549847  0.820997  0.137698  1
  O  O22  1  0.221534  0.123870  0.948521  1
  O  O23  1  0.503930  0.626755  0.824412  1
  O  O24  1  0.450153  0.271149  0.637698  1
  O  O25  1  0.778466  0.902336  0.448521  1
  O  O26  1  0.626738  0.503918  0.324437  1
  O  O27  1  0.496070  0.122824  0.324412  1
  O  O28  1  0.999993  0.999998  0.665015  1
  O  O29  1  0.666683  0.333346  0.852257  1
  O  O30  1  0.666666  0.333348  0.111266  1
  O  O31  1  0.902359  0.778490  0.948511  1
  O  O32  1  0.820982  0.549827  0.637677  1
  O  O33  1  0.728825  0.178992  0.637683  1
  O  O34  1  0.877164  0.373245  0.324413  1
  O  O35  1  0.876161  0.097677  0.948524  1
  P  P36  1  0.333344  0.666677  0.775069  1
  P  P37  1  0.000012  0.000015  0.005458  1
  P  P38  1  0.333342  0.666665  0.189687  1
  P  P39  1  0.666658  0.333324  0.689687  1
  P  P40  1  0.666656  0.333333  0.275069  1
  P  P41  1  0.999988  1.000003  0.505458  1
