# generated using pymatgen
data_Li3V3(PO4)4
_symmetry_space_group_name_H-M   'P 1'
_cell_length_a   14.59560385
_cell_length_b   4.98265650
_cell_length_c   8.23030580
_cell_angle_alpha   90.00000000
_cell_angle_beta   99.46096650
_cell_angle_gamma   90.00000000
_symmetry_Int_Tables_number   1
_chemical_formula_structural   Li3V3(PO4)4
_chemical_formula_sum   'Li6 V6 P8 O32'
_cell_volume   590.40644348
_cell_formula_units_Z   2
loop_
 _symmetry_equiv_pos_site_id
 _symmetry_equiv_pos_as_xyz
  1  'x, y, z'
loop_
 _atom_site_type_symbol
 _atom_site_label
 _atom_site_symmetry_multiplicity
 _atom_site_fract_x
 _atom_site_fract_y
 _atom_site_fract_z
 _atom_site_occupancy
  Li  Li0  1  0.122160  0.478092  0.823745  1
  Li  Li1  1  0.377840  0.978092  0.676255  1
  Li  Li2  1  0.622160  0.021908  0.323745  1
  Li  Li3  1  0.877840  0.521908  0.176255  1
  Li  Li4  1  0.000000  0.000000  0.000000  1
  Li  Li5  1  0.500000  0.500000  0.500000  1
  V  V6  1  0.500000  0.000000  0.000000  1
  V  V7  1  0.791787  0.073403  0.969958  1
  V  V8  1  0.708213  0.573403  0.530042  1
  V  V9  1  0.291787  0.426597  0.469958  1
  V  V10  1  0.000000  0.500000  0.500000  1
  V  V11  1  0.208213  0.926597  0.030042  1
  P  P12  1  0.650156  0.495098  0.123640  1
  P  P13  1  0.349844  0.504902  0.876360  1
  P  P14  1  0.150156  0.004902  0.623640  1
  P  P15  1  0.107228  0.488867  0.180225  1
  P  P16  1  0.392772  0.988867  0.319775  1
  P  P17  1  0.892772  0.511134  0.819775  1
  P  P18  1  0.607228  0.011133  0.680225  1
  P  P19  1  0.849844  0.995098  0.376360  1
  O  O20  1  0.199322  0.572399  0.291411  1
  O  O21  1  0.841993  0.917818  0.188179  1
  O  O22  1  0.627858  0.798208  0.105139  1
  O  O23  1  0.658007  0.417818  0.311821  1
  O  O24  1  0.888333  0.796429  0.888200  1
  O  O25  1  0.158007  0.082182  0.811821  1
  O  O26  1  0.111667  0.203571  0.111800  1
  O  O27  1  0.742860  0.416978  0.065217  1
  O  O28  1  0.021255  0.531540  0.262917  1
  O  O29  1  0.426877  0.672804  0.975228  1
  O  O30  1  0.611667  0.296429  0.611800  1
  O  O31  1  0.573123  0.327196  0.024772  1
  O  O32  1  0.699322  0.927601  0.791411  1
  O  O33  1  0.800678  0.427601  0.708589  1
  O  O34  1  0.388333  0.703571  0.388200  1
  O  O35  1  0.757140  0.916978  0.434783  1
  O  O36  1  0.926877  0.827196  0.475228  1
  O  O37  1  0.127858  0.701792  0.605139  1
  O  O38  1  0.242860  0.083022  0.565217  1
  O  O39  1  0.478745  0.031540  0.237083  1
  O  O40  1  0.073123  0.172804  0.524772  1
  O  O41  1  0.978745  0.468460  0.737083  1
  O  O42  1  0.300678  0.072399  0.208589  1
  O  O43  1  0.903244  0.305820  0.968429  1
  O  O44  1  0.341993  0.582182  0.688179  1
  O  O45  1  0.096756  0.694180  0.031571  1
  O  O46  1  0.372142  0.201792  0.894861  1
  O  O47  1  0.257140  0.583022  0.934783  1
  O  O48  1  0.872142  0.298208  0.394861  1
  O  O49  1  0.521255  0.968460  0.762917  1
  O  O50  1  0.596756  0.805820  0.531571  1
  O  O51  1  0.403244  0.194180  0.468429  1
