# generated using pymatgen
data_Mn(PO3)4
_symmetry_space_group_name_H-M   'P 1'
_cell_length_a   5.08681181
_cell_length_b   13.54778579
_cell_length_c   7.18245064
_cell_angle_alpha   90.00000000
_cell_angle_beta   99.07622100
_cell_angle_gamma   90.00000000
_symmetry_Int_Tables_number   1
_chemical_formula_structural   Mn(PO3)4
_chemical_formula_sum   'Mn2 P8 O24'
_cell_volume   488.78139820
_cell_formula_units_Z   2
loop_
 _symmetry_equiv_pos_site_id
 _symmetry_equiv_pos_as_xyz
  1  'x, y, z'
loop_
 _atom_site_type_symbol
 _atom_site_label
 _atom_site_symmetry_multiplicity
 _atom_site_fract_x
 _atom_site_fract_y
 _atom_site_fract_z
 _atom_site_occupancy
  Mn  Mn0  1  0.491641  0.263982  0.491426  1
  Mn  Mn1  1  0.508359  0.763982  0.508574  1
  P  P2  1  0.854298  0.829372  0.907482  1
  P  P3  1  0.226218  0.675709  0.114130  1
  P  P4  1  0.145702  0.329372  0.092518  1
  P  P5  1  0.003267  0.125559  0.547011  1
  P  P6  1  0.996733  0.625559  0.452989  1
  P  P7  1  0.018885  0.902737  0.556836  1
  P  P8  1  0.981115  0.402737  0.443164  1
  P  P9  1  0.773782  0.175708  0.885870  1
  O  O10  1  0.194602  0.336178  0.548384  1
  O  O11  1  0.802983  0.884295  0.073149  1
  O  O12  1  0.974423  0.396500  0.223144  1
  O  O13  1  0.781223  0.185355  0.432245  1
  O  O14  1  0.387888  0.288719  0.227014  1
  O  O15  1  0.949222  0.236157  0.051391  1
  O  O16  1  0.025577  0.896500  0.776856  1
  O  O17  1  0.276455  0.141909  0.490899  1
  O  O18  1  0.723545  0.641909  0.509101  1
  O  O19  1  0.197017  0.384295  0.926851  1
  O  O20  1  0.072537  0.512803  0.498132  1
  O  O21  1  0.707344  0.387364  0.497170  1
  O  O22  1  0.050778  0.736157  0.948609  1
  O  O23  1  0.611582  0.251870  0.755755  1
  O  O24  1  0.292656  0.887364  0.502830  1
  O  O25  1  0.218777  0.685355  0.567755  1
  O  O26  1  0.805398  0.836178  0.451616  1
  O  O27  1  0.612111  0.788719  0.772986  1
  O  O28  1  0.010671  0.138412  0.765112  1
  O  O29  1  0.388418  0.751870  0.244245  1
  O  O30  1  0.989329  0.638412  0.234888  1
  O  O31  1  0.927463  0.012803  0.501868  1
  O  O32  1  0.362504  0.593316  0.038506  1
  O  O33  1  0.637496  0.093316  0.961494  1
