# generated using pymatgen
data_LiMn2(PO4)3
_symmetry_space_group_name_H-M   'P 1'
_cell_length_a   4.72929733
_cell_length_b   4.72929704
_cell_length_c   19.30170634
_cell_angle_alpha   88.31246725
_cell_angle_beta   88.31246733
_cell_angle_gamma   66.82637152
_symmetry_Int_Tables_number   1
_chemical_formula_structural   LiMn2(PO4)3
_chemical_formula_sum   'Li2 Mn4 P6 O24'
_cell_volume   396.62817008
_cell_formula_units_Z   2
loop_
 _symmetry_equiv_pos_site_id
 _symmetry_equiv_pos_as_xyz
  1  'x, y, z'
loop_
 _atom_site_type_symbol
 _atom_site_label
 _atom_site_symmetry_multiplicity
 _atom_site_fract_x
 _atom_site_fract_y
 _atom_site_fract_z
 _atom_site_occupancy
  Li  Li0  1  0.998529  0.998529  0.504853  1
  Li  Li1  1  0.001471  0.001471  0.828480  1
  Mn  Mn2  1  0.001159  0.001159  0.997952  1
  Mn  Mn3  1  0.998841  0.998841  0.335381  1
  Mn  Mn4  1  0.000000  0.000000  0.166667  1
  Mn  Mn5  1  0.000000  0.000000  0.666667  1
  P  P6  1  0.343964  0.343964  0.079205  1
  P  P7  1  0.656036  0.656036  0.254128  1
  P  P8  1  0.346810  0.346810  0.411822  1
  P  P9  1  0.653190  0.653190  0.921512  1
  P  P10  1  0.649669  0.649669  0.589524  1
  P  P11  1  0.350331  0.350331  0.743809  1
  O  O12  1  0.767752  0.767752  0.985044  1
  O  O13  1  0.774840  0.289877  0.594304  1
  O  O14  1  0.292839  0.775518  0.927960  1
  O  O15  1  0.257602  0.257602  0.482332  1
  O  O16  1  0.293740  0.782610  0.254707  1
  O  O17  1  0.240384  0.240384  0.147975  1
  O  O18  1  0.762522  0.762522  0.318069  1
  O  O19  1  0.237478  0.237478  0.015264  1
  O  O20  1  0.759616  0.759616  0.185358  1
  O  O21  1  0.710123  0.225160  0.739029  1
  O  O22  1  0.259887  0.259887  0.814891  1
  O  O23  1  0.782610  0.293740  0.254707  1
  O  O24  1  0.765101  0.765101  0.652100  1
  O  O25  1  0.234899  0.234899  0.681234  1
  O  O26  1  0.224482  0.707161  0.405374  1
  O  O27  1  0.232248  0.232248  0.348290  1
  O  O28  1  0.217390  0.706260  0.078626  1
  O  O29  1  0.742398  0.742398  0.851002  1
  O  O30  1  0.740113  0.740113  0.518442  1
  O  O31  1  0.707161  0.224482  0.405374  1
  O  O32  1  0.706260  0.217390  0.078626  1
  O  O33  1  0.225160  0.710123  0.739029  1
  O  O34  1  0.775518  0.292839  0.927960  1
  O  O35  1  0.289877  0.774840  0.594304  1
