# generated using pymatgen
data_Cr3(PO4)4
_symmetry_space_group_name_H-M   'P 1'
_cell_length_a   7.58912958
_cell_length_b   7.75564637
_cell_length_c   10.21062836
_cell_angle_alpha   90.00000000
_cell_angle_beta   94.67321406
_cell_angle_gamma   90.00000000
_symmetry_Int_Tables_number   1
_chemical_formula_structural   Cr3(PO4)4
_chemical_formula_sum   'Cr6 P8 O32'
_cell_volume   598.98542567
_cell_formula_units_Z   2
loop_
 _symmetry_equiv_pos_site_id
 _symmetry_equiv_pos_as_xyz
  1  'x, y, z'
loop_
 _atom_site_type_symbol
 _atom_site_label
 _atom_site_symmetry_multiplicity
 _atom_site_fract_x
 _atom_site_fract_y
 _atom_site_fract_z
 _atom_site_occupancy
  Cr  Cr0  1  0.484345  0.521675  0.002883  1
  Cr  Cr1  1  0.015655  0.021675  0.747117  1
  Cr  Cr2  1  0.599396  0.140655  0.049265  1
  Cr  Cr3  1  0.900604  0.640655  0.700735  1
  Cr  Cr4  1  0.490066  0.488207  0.502708  1
  Cr  Cr5  1  0.009934  0.988207  0.247292  1
  P  P6  1  0.195026  0.189981  0.509695  1
  P  P7  1  0.301565  0.705079  0.725008  1
  P  P8  1  0.796262  0.820410  0.477764  1
  P  P9  1  0.810069  0.797292  0.985422  1
  P  P10  1  0.689931  0.297292  0.764578  1
  P  P11  1  0.703738  0.320410  0.272236  1
  P  P12  1  0.304974  0.689981  0.240305  1
  P  P13  1  0.198435  0.205079  0.024992  1
  O  O14  1  0.388023  0.682495  0.596567  1
  O  O15  1  0.158620  0.551082  0.215635  1
  O  O16  1  0.264893  0.367095  0.472029  1
  O  O17  1  0.753311  0.131520  0.211491  1
  O  O18  1  0.448023  0.623352  0.342959  1
  O  O19  1  0.774867  0.124477  0.740911  1
  O  O20  1  0.540988  0.347761  0.663782  1
  O  O21  1  0.051977  0.123352  0.407041  1
  O  O22  1  0.113301  0.200359  0.645121  1
  O  O23  1  0.889053  0.806471  0.350675  1
  O  O24  1  0.341380  0.051082  0.534365  1
  O  O25  1  0.937060  0.858242  0.599371  1
  O  O26  1  0.857518  0.440906  0.291158  1
  O  O27  1  0.610947  0.306471  0.399325  1
  O  O28  1  0.642482  0.940906  0.458842  1
  O  O29  1  0.725133  0.624477  0.009089  1
  O  O30  1  0.562940  0.358242  0.150629  1
  O  O31  1  0.260452  0.388657  0.996971  1
  O  O32  1  0.829794  0.442340  0.782381  1
  O  O33  1  0.893866  0.796148  0.843790  1
  O  O34  1  0.077197  0.135472  0.911341  1
  O  O35  1  0.128483  0.581870  0.712232  1
  O  O36  1  0.371517  0.081870  0.037768  1
  O  O37  1  0.959012  0.847761  0.086218  1
  O  O38  1  0.746689  0.631520  0.538509  1
  O  O39  1  0.670206  0.942340  0.967619  1
  O  O40  1  0.239548  0.888657  0.753029  1
  O  O41  1  0.606134  0.296148  0.906210  1
  O  O42  1  0.422803  0.635472  0.838659  1
  O  O43  1  0.235107  0.867095  0.277971  1
  O  O44  1  0.111977  0.182495  0.153433  1
  O  O45  1  0.386699  0.700359  0.104879  1
