# generated using pymatgen
data_LiFeP2O7
_symmetry_space_group_name_H-M   'P 1'
_cell_length_a   5.31501225
_cell_length_b   5.31501225
_cell_length_c   9.11211253
_cell_angle_alpha   80.98715222
_cell_angle_beta   99.01284780
_cell_angle_gamma   76.75240254
_symmetry_Int_Tables_number   1
_chemical_formula_structural   LiFeP2O7
_chemical_formula_sum   'Li2 Fe2 P4 O14'
_cell_volume   242.45303756
_cell_formula_units_Z   2
loop_
 _symmetry_equiv_pos_site_id
 _symmetry_equiv_pos_as_xyz
  1  'x, y, z'
loop_
 _atom_site_type_symbol
 _atom_site_label
 _atom_site_symmetry_multiplicity
 _atom_site_fract_x
 _atom_site_fract_y
 _atom_site_fract_z
 _atom_site_occupancy
  Li  Li0  1  0.288441  0.320936  0.509940  1
  Li  Li1  1  0.679064  0.711560  0.009940  1
  O  O2  1  0.388185  0.935221  0.109831  1
  O  O3  1  0.660817  0.028212  0.390792  1
  O  O4  1  0.064778  0.611815  0.609831  1
  O  O5  1  0.359212  0.930334  0.609529  1
  O  O6  1  0.372025  0.621496  0.856638  1
  O  O7  1  0.629815  0.394744  0.646936  1
  O  O8  1  0.069666  0.640788  0.109529  1
  O  O9  1  0.605257  0.370187  0.146936  1
  O  O10  1  0.378503  0.627974  0.356638  1
  O  O11  1  0.900429  0.390895  0.389663  1
  O  O12  1  0.028242  0.037778  0.244860  1
  O  O13  1  0.609105  0.099571  0.889662  1
  O  O14  1  0.971789  0.339181  0.890792  1
  O  O15  1  0.962222  0.971757  0.744860  1
  P  P16  1  0.221284  0.793641  0.201083  1
  P  P17  1  0.789859  0.212831  0.796625  1
  P  P18  1  0.206359  0.778717  0.701084  1
  P  P19  1  0.787169  0.210141  0.296625  1
  Fe  Fe20  1  0.693809  0.666029  0.494105  1
  Fe  Fe21  1  0.333972  0.306193  0.994105  1
