# generated using pymatgen
data_LiNiP2O7
_symmetry_space_group_name_H-M   'P 1'
_cell_length_a   7.12301602
_cell_length_b   8.30546742
_cell_length_c   9.78598882
_cell_angle_alpha   90.00000000
_cell_angle_beta   110.13181105
_cell_angle_gamma   90.00000000
_symmetry_Int_Tables_number   1
_chemical_formula_structural   LiNiP2O7
_chemical_formula_sum   'Li4 Ni4 P8 O28'
_cell_volume   543.56762655
_cell_formula_units_Z   4
loop_
 _symmetry_equiv_pos_site_id
 _symmetry_equiv_pos_as_xyz
  1  'x, y, z'
loop_
 _atom_site_type_symbol
 _atom_site_label
 _atom_site_symmetry_multiplicity
 _atom_site_fract_x
 _atom_site_fract_y
 _atom_site_fract_z
 _atom_site_occupancy
  Li  Li0  1  0.177587  0.625953  0.743846  1
  Li  Li1  1  0.177588  0.874047  0.243845  1
  Li  Li2  1  0.822413  0.125953  0.756154  1
  Li  Li3  1  0.822413  0.374047  0.256155  1
  O  O4  1  0.274844  0.812787  0.626671  1
  O  O5  1  0.882282  0.854047  0.124755  1
  O  O6  1  0.923778  0.948593  0.658711  1
  O  O7  1  0.806752  0.827523  0.404490  1
  O  O8  1  0.076223  0.448593  0.841290  1
  O  O9  1  0.117717  0.145953  0.875244  1
  O  O10  1  0.076223  0.051407  0.341290  1
  O  O11  1  0.193248  0.172477  0.595509  1
  O  O12  1  0.279956  0.803491  0.894357  1
  O  O13  1  0.117717  0.354047  0.375245  1
  O  O14  1  0.414815  0.337798  0.937666  1
  O  O15  1  0.923777  0.551407  0.158710  1
  O  O16  1  0.193247  0.327523  0.095509  1
  O  O17  1  0.519769  0.066898  0.857260  1
  O  O18  1  0.279956  0.696509  0.394357  1
  O  O19  1  0.480230  0.566898  0.642740  1
  O  O20  1  0.414815  0.162202  0.437665  1
  O  O21  1  0.274844  0.687214  0.126672  1
  O  O22  1  0.720044  0.196509  0.105642  1
  O  O23  1  0.585185  0.837798  0.562335  1
  O  O24  1  0.519770  0.433101  0.357260  1
  O  O25  1  0.720043  0.303491  0.605642  1
  O  O26  1  0.480231  0.933101  0.142740  1
  O  O27  1  0.806753  0.672477  0.904491  1
  O  O28  1  0.725155  0.187213  0.373328  1
  O  O29  1  0.585184  0.662202  0.062335  1
  O  O30  1  0.882283  0.645953  0.624755  1
  O  O31  1  0.725156  0.312787  0.873329  1
  P  P32  1  0.809188  0.688583  0.059172  1
  P  P33  1  0.809188  0.811416  0.559173  1
  P  P34  1  0.402593  0.780024  0.055460  1
  P  P35  1  0.597406  0.280023  0.444540  1
  P  P36  1  0.190813  0.311417  0.940828  1
  P  P37  1  0.190812  0.188583  0.440828  1
  P  P38  1  0.402594  0.719977  0.555460  1
  P  P39  1  0.597407  0.219977  0.944540  1
  Ni  Ni40  1  0.227443  0.998971  0.750235  1
  Ni  Ni41  1  0.227442  0.501029  0.250235  1
  Ni  Ni42  1  0.772558  0.498971  0.749764  1
  Ni  Ni43  1  0.772557  0.001029  0.249764  1
