# generated using pymatgen
data_V(PO3)4
_symmetry_space_group_name_H-M   'P 1'
_cell_length_a   7.40076946
_cell_length_b   7.40559992
_cell_length_c   9.90912879
_cell_angle_alpha   85.08302654
_cell_angle_beta   68.36685571
_cell_angle_gamma   113.01242568
_symmetry_Int_Tables_number   1
_chemical_formula_structural   V(PO3)4
_chemical_formula_sum   'V2 P8 O24'
_cell_volume   447.58367338
_cell_formula_units_Z   2
loop_
 _symmetry_equiv_pos_site_id
 _symmetry_equiv_pos_as_xyz
  1  'x, y, z'
loop_
 _atom_site_type_symbol
 _atom_site_label
 _atom_site_symmetry_multiplicity
 _atom_site_fract_x
 _atom_site_fract_y
 _atom_site_fract_z
 _atom_site_occupancy
  V  V0  1  -0.000083  0.000047  0.500079  1
  V  V1  1  0.000114  0.500029  -0.000099  1
  P  P2  1  0.280177  0.258337  0.967127  1
  P  P3  1  0.725975  0.247815  0.531886  1
  P  P4  1  0.993586  0.662076  0.311477  1
  P  P5  1  0.273994  0.752200  0.468107  1
  P  P6  1  0.719828  0.741638  0.032886  1
  P  P7  1  0.473205  0.304728  0.188679  1
  P  P8  1  0.526822  0.695261  0.811335  1
  P  P9  1  0.006414  0.337955  0.688511  1
  O  O10  1  0.494353  0.467383  0.844928  1
  O  O11  1  0.955803  0.343784  0.849271  1
  O  O12  1  0.044185  0.656207  0.150728  1
  O  O13  1  0.116989  0.336245  0.057355  1
  O  O14  1  0.105916  0.825017  0.558337  1
  O  O15  1  0.187395  0.660602  0.345576  1
  O  O16  1  0.041098  0.157425  0.648786  1
  O  O17  1  0.216991  0.544468  0.579081  1
  O  O18  1  0.375815  0.204214  0.078924  1
  O  O19  1  0.507886  0.886080  0.395696  1
  O  O20  1  0.505653  0.532626  0.155062  1
  O  O21  1  0.306652  0.194323  0.349253  1
  O  O22  1  0.306564  0.690364  0.850809  1
  O  O23  1  0.782014  0.902958  0.105207  1
  O  O24  1  0.217967  0.097047  0.894792  1
  O  O25  1  0.894073  0.174978  0.441671  1
  O  O26  1  0.693353  0.805666  0.650764  1
  O  O27  1  0.883027  0.663761  0.942640  1
  O  O28  1  0.492114  0.113901  0.604296  1
  O  O29  1  0.624162  0.795781  0.921073  1
  O  O30  1  0.782991  0.455485  0.420927  1
  O  O31  1  0.958896  0.842576  0.351252  1
  O  O32  1  0.812594  0.339368  0.654431  1
  O  O33  1  0.693475  0.309655  0.149151  1
