# generated using pymatgen
data_Li3V3(PO4)4
_symmetry_space_group_name_H-M   'P 1'
_cell_length_a   7.67040927
_cell_length_b   8.11389744
_cell_length_c   10.19882526
_cell_angle_alpha   90.00000000
_cell_angle_beta   94.28177121
_cell_angle_gamma   90.00000000
_symmetry_Int_Tables_number   1
_chemical_formula_structural   Li3V3(PO4)4
_chemical_formula_sum   'Li6 V6 P8 O32'
_cell_volume   632.97180395
_cell_formula_units_Z   2
loop_
 _symmetry_equiv_pos_site_id
 _symmetry_equiv_pos_as_xyz
  1  'x, y, z'
loop_
 _atom_site_type_symbol
 _atom_site_label
 _atom_site_symmetry_multiplicity
 _atom_site_fract_x
 _atom_site_fract_y
 _atom_site_fract_z
 _atom_site_occupancy
  Li  Li0  1  0.091733  0.368812  0.296231  1
  Li  Li1  1  0.902450  0.633274  0.201309  1
  Li  Li2  1  0.597550  0.133274  0.048691  1
  Li  Li3  1  0.408267  0.868812  0.953769  1
  Li  Li4  1  0.611387  0.141401  0.547086  1
  Li  Li5  1  0.888613  0.641401  0.702914  1
  V  V6  1  0.107214  0.360474  0.802669  1
  V  V7  1  0.508515  0.488506  0.495489  1
  V  V8  1  0.392786  0.860474  0.447331  1
  V  V9  1  0.513629  0.505330  0.000437  1
  V  V10  1  0.986371  0.005330  0.249563  1
  V  V11  1  0.991485  0.988506  0.754511  1
  P  P12  1  0.799569  0.811761  0.983583  1
  P  P13  1  0.299841  0.697346  0.731205  1
  P  P14  1  0.701866  0.301427  0.771077  1
  P  P15  1  0.700431  0.311761  0.266417  1
  P  P16  1  0.301437  0.685028  0.224234  1
  P  P17  1  0.198563  0.185028  0.025766  1
  P  P18  1  0.798134  0.801427  0.478923  1
  P  P19  1  0.200159  0.197346  0.518795  1
  O  O20  1  0.246900  0.864874  0.276891  1
  O  O21  1  0.931612  0.858306  0.589927  1
  O  O22  1  0.057100  0.146188  0.908246  1
  O  O23  1  0.149271  0.569877  0.217090  1
  O  O24  1  0.056904  0.140633  0.415835  1
  O  O25  1  0.851360  0.430363  0.281488  1
  O  O26  1  0.443096  0.640633  0.834165  1
  O  O27  1  0.145174  0.575019  0.719140  1
  O  O28  1  0.557226  0.363765  0.157359  1
  O  O29  1  0.605450  0.304415  0.398921  1
  O  O30  1  0.119730  0.196314  0.658562  1
  O  O31  1  0.648640  0.930363  0.968512  1
  O  O32  1  0.942774  0.863765  0.092641  1
  O  O33  1  0.764398  0.127831  0.730541  1
  O  O34  1  0.263472  0.370573  0.483258  1
  O  O35  1  0.863176  0.421463  0.779942  1
  O  O36  1  0.885193  0.809011  0.347586  1
  O  O37  1  0.568388  0.358306  0.660073  1
  O  O38  1  0.744881  0.633260  0.021235  1
  O  O39  1  0.442900  0.646188  0.341754  1
  O  O40  1  0.755119  0.133260  0.228765  1
  O  O41  1  0.380270  0.696314  0.591438  1
  O  O42  1  0.105929  0.194749  0.154416  1
  O  O43  1  0.894550  0.804415  0.851079  1
  O  O44  1  0.253100  0.364874  0.973109  1
  O  O45  1  0.614807  0.309011  0.902414  1
  O  O46  1  0.394071  0.694749  0.095584  1
  O  O47  1  0.636824  0.921463  0.470058  1
  O  O48  1  0.354826  0.075019  0.530860  1
  O  O49  1  0.350729  0.069877  0.032910  1
  O  O50  1  0.236528  0.870573  0.766742  1
  O  O51  1  0.735602  0.627831  0.519459  1
