# generated using pymatgen
data_Mo2(PO4)3
_symmetry_space_group_name_H-M   'P 1'
_cell_length_a   8.71260262
_cell_length_b   8.75683108
_cell_length_c   9.04791682
_cell_angle_alpha   89.92503539
_cell_angle_beta   60.83831585
_cell_angle_gamma   119.47812634
_symmetry_Int_Tables_number   1
_chemical_formula_structural   Mo2(PO4)3
_chemical_formula_sum   'Mo4 P6 O24'
_cell_volume   497.68320107
_cell_formula_units_Z   2
loop_
 _symmetry_equiv_pos_site_id
 _symmetry_equiv_pos_as_xyz
  1  'x, y, z'
loop_
 _atom_site_type_symbol
 _atom_site_label
 _atom_site_symmetry_multiplicity
 _atom_site_fract_x
 _atom_site_fract_y
 _atom_site_fract_z
 _atom_site_occupancy
  O  O0  1  0.502801  0.079842  0.207412  1
  O  O1  1  0.879012  0.375602  0.917711  1
  O  O2  1  0.887146  0.142853  0.589584  1
  O  O3  1  0.839606  0.541849  0.730664  1
  O  O4  1  0.120987  0.624398  0.082290  1
  O  O5  1  0.112854  0.857147  0.410417  1
  O  O6  1  0.160393  0.458151  0.269336  1
  O  O7  1  0.140465  0.721810  0.770399  1
  O  O8  1  0.159899  0.519655  0.581557  1
  O  O9  1  0.274747  0.199353  0.281607  1
  O  O10  1  0.285140  0.008143  0.079861  1
  O  O11  1  0.704002  0.920155  0.231213  1
  O  O12  1  0.532509  0.576673  0.264610  1
  O  O13  1  0.267717  0.265301  0.590116  1
  O  O14  1  0.840102  0.480345  0.418444  1
  O  O15  1  0.075333  0.205210  0.923354  1
  O  O16  1  0.924666  0.794791  0.076645  1
  O  O17  1  0.859535  0.278190  0.229601  1
  O  O18  1  0.732282  0.734698  0.409883  1
  O  O19  1  0.467491  0.423327  0.735389  1
  O  O20  1  0.295997  0.079844  0.768788  1
  O  O21  1  0.714860  0.991857  0.920140  1
  O  O22  1  0.725254  0.800647  0.718393  1
  O  O23  1  0.497198  0.920158  0.792588  1
  P  P24  1  0.282202  0.031056  0.249684  1
  P  P25  1  0.714147  0.750966  0.251369  1
  P  P26  1  0.285853  0.249035  0.748631  1
  P  P27  1  0.717798  0.968944  0.750316  1
  P  P28  1  0.003868  0.537042  0.749135  1
  P  P29  1  0.996131  0.462957  0.250866  1
  Mo  Mo30  1  0.788686  0.143626  0.071802  1
  Mo  Mo31  1  0.789278  0.641607  0.570009  1
  Mo  Mo32  1  0.210722  0.358392  0.429992  1
  Mo  Mo33  1  0.211315  0.856374  0.928198  1
