# generated using pymatgen
data_LiMo2PO8
_symmetry_space_group_name_H-M   'P 1'
_cell_length_a   6.72749744
_cell_length_b   5.24858789
_cell_length_c   17.72715080
_cell_angle_alpha   90.00000000
_cell_angle_beta   89.98820845
_cell_angle_gamma   90.00000000
_symmetry_Int_Tables_number   1
_chemical_formula_structural   LiMo2PO8
_chemical_formula_sum   'Li4 Mo8 P4 O32'
_cell_volume   625.94322778
_cell_formula_units_Z   4
loop_
 _symmetry_equiv_pos_site_id
 _symmetry_equiv_pos_as_xyz
  1  'x, y, z'
loop_
 _atom_site_type_symbol
 _atom_site_label
 _atom_site_symmetry_multiplicity
 _atom_site_fract_x
 _atom_site_fract_y
 _atom_site_fract_z
 _atom_site_occupancy
  Li  Li0  1  0.239693  0.241069  0.790995  1
  Li  Li1  1  0.265024  0.292265  0.291190  1
  Li  Li2  1  0.734977  0.792264  0.708810  1
  Li  Li3  1  0.760306  0.741070  0.209005  1
  O  O4  1  0.157885  0.257285  0.043386  1
  O  O5  1  0.959311  0.472089  0.510174  1
  O  O6  1  0.841639  0.353530  0.227704  1
  O  O7  1  0.848186  0.967163  0.116711  1
  O  O8  1  0.862313  0.112072  0.842655  1
  O  O9  1  0.842116  0.757284  0.956615  1
  O  O10  1  0.787432  0.475933  0.082494  1
  O  O11  1  0.787474  0.564684  0.802406  1
  O  O12  1  0.993808  0.255824  0.351640  1
  O  O13  1  0.040690  0.972088  0.489826  1
  O  O14  1  0.158360  0.853530  0.772296  1
  O  O15  1  0.151813  0.467162  0.883289  1
  O  O16  1  0.137686  0.612073  0.157345  1
  O  O17  1  0.006192  0.755823  0.648360  1
  O  O18  1  0.212568  0.975934  0.917506  1
  O  O19  1  0.212527  0.064685  0.197594  1
  O  O20  1  0.361653  0.923411  0.656294  1
  O  O21  1  0.287731  0.471201  0.697297  1
  O  O22  1  0.286796  0.561416  0.417443  1
  O  O23  1  0.348469  0.069690  0.383573  1
  O  O24  1  0.638348  0.423412  0.343706  1
  O  O25  1  0.344153  0.682795  0.272408  1
  O  O26  1  0.459915  0.564835  0.989548  1
  O  O27  1  0.507014  0.279619  0.852007  1
  O  O28  1  0.492985  0.779618  0.147993  1
  O  O29  1  0.540086  0.064834  0.010452  1
  O  O30  1  0.655847  0.182794  0.727592  1
  O  O31  1  0.657699  0.781023  0.457035  1
  O  O32  1  0.651530  0.569689  0.616427  1
  O  O33  1  0.713204  0.061415  0.582557  1
  O  O34  1  0.712270  0.971201  0.302703  1
  O  O35  1  0.342300  0.281022  0.542965  1
  P  P36  1  0.794002  0.251013  0.307905  1
  P  P37  1  0.705824  0.284892  0.807645  1
  P  P38  1  0.294177  0.784891  0.192355  1
  P  P39  1  0.205997  0.751012  0.692095  1
  Mo  Mo40  1  0.156097  0.261298  0.451529  1
  Mo  Mo41  1  0.343549  0.275379  0.951751  1
  Mo  Mo42  1  0.499197  0.269069  0.624865  1
  Mo  Mo43  1  0.000525  0.267247  0.125302  1
  Mo  Mo44  1  0.500804  0.769069  0.375135  1
  Mo  Mo45  1  0.656451  0.775380  0.048249  1
  Mo  Mo46  1  0.843902  0.761299  0.548471  1
  Mo  Mo47  1  0.999474  0.767248  0.874698  1
