# generated using pymatgen
data_Mo3(PO4)4
_symmetry_space_group_name_H-M   'P 1'
_cell_length_a   13.68006994
_cell_length_b   5.15703189
_cell_length_c   8.78882109
_cell_angle_alpha   90.00000000
_cell_angle_beta   95.66697355
_cell_angle_gamma   90.00000000
_symmetry_Int_Tables_number   1
_chemical_formula_structural   Mo3(PO4)4
_chemical_formula_sum   'Mo6 P8 O32'
_cell_volume   617.00830234
_cell_formula_units_Z   2
loop_
 _symmetry_equiv_pos_site_id
 _symmetry_equiv_pos_as_xyz
  1  'x, y, z'
loop_
 _atom_site_type_symbol
 _atom_site_label
 _atom_site_symmetry_multiplicity
 _atom_site_fract_x
 _atom_site_fract_y
 _atom_site_fract_z
 _atom_site_occupancy
  Mo  Mo0  1  0.798352  0.030193  0.995037  1
  Mo  Mo1  1  0.298352  0.469807  0.495037  1
  Mo  Mo2  1  0.701648  0.530193  0.504963  1
  Mo  Mo3  1  0.000000  0.500000  0.500000  1
  Mo  Mo4  1  0.201648  0.969807  0.004963  1
  Mo  Mo5  1  0.500000  0.000000  0.000000  1
  P  P6  1  0.153870  0.000888  0.615648  1
  P  P7  1  0.846130  0.999112  0.384352  1
  P  P8  1  0.384722  0.995035  0.311485  1
  P  P9  1  0.615278  0.004965  0.688515  1
  P  P10  1  0.115278  0.495035  0.188515  1
  P  P11  1  0.884722  0.504965  0.811485  1
  P  P12  1  0.653870  0.499112  0.115648  1
  P  P13  1  0.346130  0.500888  0.884352  1
  O  O14  1  0.617881  0.219575  0.571525  1
  O  O15  1  0.931022  0.839003  0.464778  1
  O  O16  1  0.431022  0.660997  0.964778  1
  O  O17  1  0.117881  0.280425  0.071525  1
  O  O18  1  0.248457  0.610049  0.924733  1
  O  O19  1  0.523020  0.023588  0.777171  1
  O  O20  1  0.106148  0.765769  0.106499  1
  O  O21  1  0.251543  0.110049  0.575267  1
  O  O22  1  0.145900  0.027073  0.789856  1
  O  O23  1  0.023020  0.476412  0.277171  1
  O  O24  1  0.893852  0.234231  0.893501  1
  O  O25  1  0.748457  0.889951  0.424733  1
  O  O26  1  0.644471  0.789948  0.060586  1
  O  O27  1  0.208586  0.494943  0.302662  1
  O  O28  1  0.355529  0.210052  0.939414  1
  O  O29  1  0.976980  0.523588  0.722829  1
  O  O30  1  0.144471  0.710052  0.560586  1
  O  O31  1  0.606148  0.734231  0.606499  1
  O  O32  1  0.393852  0.265769  0.393501  1
  O  O33  1  0.382119  0.780425  0.428475  1
  O  O34  1  0.645900  0.472927  0.289856  1
  O  O35  1  0.791414  0.505057  0.697338  1
  O  O36  1  0.708586  0.005057  0.802662  1
  O  O37  1  0.854100  0.972927  0.210144  1
  O  O38  1  0.476980  0.976412  0.222829  1
  O  O39  1  0.354100  0.527073  0.710144  1
  O  O40  1  0.068978  0.160997  0.535222  1
  O  O41  1  0.568978  0.339003  0.035222  1
  O  O42  1  0.882119  0.719575  0.928475  1
  O  O43  1  0.751543  0.389951  0.075267  1
  O  O44  1  0.855529  0.289948  0.439414  1
  O  O45  1  0.291414  0.994943  0.197338  1
