# generated using pymatgen
data_LiMo2P3O13
_symmetry_space_group_name_H-M   'P 1'
_cell_length_a   6.47136000
_cell_length_b   19.36405736
_cell_length_c   9.74584523
_cell_angle_alpha   90.00000000
_cell_angle_beta   105.68270043
_cell_angle_gamma   90.00000000
_symmetry_Int_Tables_number   1
_chemical_formula_structural   LiMo2P3O13
_chemical_formula_sum   'Li4 Mo8 P12 O52'
_cell_volume   1175.80558009
_cell_formula_units_Z   4
loop_
 _symmetry_equiv_pos_site_id
 _symmetry_equiv_pos_as_xyz
  1  'x, y, z'
loop_
 _atom_site_type_symbol
 _atom_site_label
 _atom_site_symmetry_multiplicity
 _atom_site_fract_x
 _atom_site_fract_y
 _atom_site_fract_z
 _atom_site_occupancy
  Li  Li0  1  0.040144  0.908059  0.643606  1
  Li  Li1  1  0.218311  0.103254  0.052593  1
  Li  Li2  1  0.781689  0.603254  0.947408  1
  Li  Li3  1  0.959857  0.408059  0.356393  1
  O  O4  1  0.143714  0.450104  0.234911  1
  O  O5  1  0.929594  0.305598  0.038399  1
  O  O6  1  0.939506  0.915201  0.056843  1
  O  O7  1  0.944336  0.802506  0.183805  1
  O  O8  1  0.972513  0.153193  0.289607  1
  O  O9  1  0.795140  0.514035  0.067842  1
  O  O10  1  0.838533  0.253443  0.398841  1
  O  O11  1  0.957315  0.368837  0.542956  1
  O  O12  1  0.004098  0.556482  0.873393  1
  O  O13  1  0.070406  0.805598  0.961601  1
  O  O14  1  0.060495  0.415202  0.943157  1
  O  O15  1  0.055665  0.302506  0.816194  1
  O  O16  1  0.027488  0.653193  0.710393  1
  O  O17  1  0.204859  0.014035  0.932158  1
  O  O18  1  0.121800  0.532121  0.642965  1
  O  O19  1  0.042685  0.868838  0.457043  1
  O  O20  1  0.161468  0.753443  0.601160  1
  O  O21  1  0.284445  0.869716  0.790857  1
  O  O22  1  0.091551  0.678626  0.346333  1
  O  O23  1  0.342022  0.724091  0.855762  1
  O  O24  1  0.255613  0.257380  0.610681  1
  O  O25  1  0.146661  0.596439  0.159171  1
  O  O26  1  0.257385  0.065062  0.374457  1
  O  O27  1  0.995903  0.056483  0.126607  1
  O  O28  1  0.396781  0.645327  0.665309  1
  O  O29  1  0.526081  0.273346  0.854591  1
  O  O30  1  0.584754  0.003909  0.938264  1
  O  O31  1  0.327249  0.569772  0.413695  1
  O  O32  1  0.573371  0.411359  0.930214  1
  O  O33  1  0.532598  0.536291  0.843268  1
  O  O34  1  0.441938  0.451975  0.586762  1
  O  O35  1  0.363672  0.789058  0.376848  1
  O  O36  1  0.541957  0.170234  0.702144  1
  O  O37  1  0.686160  0.816648  0.942688  1
  O  O38  1  0.313840  0.316649  0.057311  1
  O  O39  1  0.458044  0.670234  0.297855  1
  O  O40  1  0.636328  0.289058  0.623153  1
  O  O41  1  0.558061  0.951975  0.413238  1
  O  O42  1  0.467403  0.036291  0.156732  1
  O  O43  1  0.426630  0.911359  0.069786  1
  O  O44  1  0.672752  0.069772  0.586305  1
  O  O45  1  0.415246  0.503909  0.061737  1
  O  O46  1  0.473917  0.773346  0.145409  1
  O  O47  1  0.603219  0.145327  0.334691  1
  O  O48  1  0.856286  0.950104  0.765088  1
  O  O49  1  0.742615  0.565063  0.625543  1
  O  O50  1  0.853339  0.096439  0.840829  1
  O  O51  1  0.744388  0.757381  0.389319  1
  O  O52  1  0.657977  0.224091  0.144238  1
  O  O53  1  0.908448  0.178626  0.653666  1
  O  O54  1  0.715556  0.369716  0.209143  1
  O  O55  1  0.878201  0.032122  0.357036  1
  P  P56  1  0.910880  0.835854  0.036948  1
  P  P57  1  0.975979  0.571832  0.714474  1
  P  P58  1  0.757905  0.195245  0.294286  1
  P  P59  1  0.752760  0.128222  0.692094  1
  P  P60  1  0.425149  0.987031  0.026326  1
  P  P61  1  0.510597  0.752249  0.300691  1
  P  P62  1  0.489404  0.252250  0.699309  1
  P  P63  1  0.574851  0.487031  0.973675  1
  P  P64  1  0.089119  0.335854  0.963051  1
  P  P65  1  0.024020  0.071832  0.285526  1
  P  P66  1  0.247240  0.628223  0.307907  1
  P  P67  1  0.242095  0.695245  0.705715  1
  Mo  Mo68  1  0.051898  0.785911  0.392518  1
  Mo  Mo69  1  0.374040  0.820958  0.944858  1
  Mo  Mo70  1  0.115891  0.496263  0.079862  1
  Mo  Mo71  1  0.434334  0.537795  0.622692  1
  Mo  Mo72  1  0.565666  0.037795  0.377307  1
  Mo  Mo73  1  0.884110  0.996263  0.920138  1
  Mo  Mo74  1  0.625959  0.320958  0.055142  1
  Mo  Mo75  1  0.948102  0.285911  0.607482  1
