# generated using pymatgen
data_LiV(PO4)2
_symmetry_space_group_name_H-M   'P 1'
_cell_length_a   7.55703617
_cell_length_b   13.65816470
_cell_length_c   6.22781408
_cell_angle_alpha   90.00000000
_cell_angle_beta   99.90134082
_cell_angle_gamma   90.00000000
_symmetry_Int_Tables_number   1
_chemical_formula_structural   LiV(PO4)2
_chemical_formula_sum   'Li4 V4 P8 O32'
_cell_volume   633.23096284
_cell_formula_units_Z   4
loop_
 _symmetry_equiv_pos_site_id
 _symmetry_equiv_pos_as_xyz
  1  'x, y, z'
loop_
 _atom_site_type_symbol
 _atom_site_label
 _atom_site_symmetry_multiplicity
 _atom_site_fract_x
 _atom_site_fract_y
 _atom_site_fract_z
 _atom_site_occupancy
  Li  Li0  1  0.883238  0.238919  0.331758  1
  Li  Li1  1  0.116762  0.761081  0.668242  1
  Li  Li2  1  0.883238  0.261081  0.831758  1
  Li  Li3  1  0.116762  0.738919  0.168242  1
  V  V4  1  0.223395  0.088912  0.774813  1
  V  V5  1  0.776605  0.911088  0.225187  1
  V  V6  1  0.776605  0.588912  0.725187  1
  V  V7  1  0.223395  0.411088  0.274813  1
  P  P8  1  0.175272  0.022624  0.265149  1
  P  P9  1  0.638877  0.122758  0.971626  1
  P  P10  1  0.175272  0.477376  0.765149  1
  P  P11  1  0.638877  0.377242  0.471626  1
  P  P12  1  0.824728  0.977376  0.734851  1
  P  P13  1  0.361123  0.622758  0.528374  1
  P  P14  1  0.824728  0.522624  0.234851  1
  P  P15  1  0.361123  0.877242  0.028374  1
  O  O16  1  0.024799  0.506887  0.231529  1
  O  O17  1  0.089832  0.315964  0.218368  1
  O  O18  1  0.637024  0.044556  0.142054  1
  O  O19  1  0.201286  0.406919  0.583198  1
  O  O20  1  0.265533  0.580044  0.728334  1
  O  O21  1  0.267742  0.437478  0.985890  1
  O  O22  1  0.447490  0.348524  0.351027  1
  O  O23  1  0.734467  0.419956  0.271666  1
  O  O24  1  0.734467  0.080044  0.771666  1
  O  O25  1  0.447490  0.151476  0.851027  1
  O  O26  1  0.637024  0.455444  0.642054  1
  O  O27  1  0.552510  0.848524  0.148973  1
  O  O28  1  0.265533  0.919956  0.228334  1
  O  O29  1  0.089832  0.184036  0.718368  1
  O  O30  1  0.747583  0.286408  0.545912  1
  O  O31  1  0.552510  0.651476  0.648973  1
  O  O32  1  0.798714  0.593081  0.416802  1
  O  O33  1  0.910168  0.684036  0.781632  1
  O  O34  1  0.975201  0.493113  0.768471  1
  O  O35  1  0.732258  0.937478  0.514110  1
  O  O36  1  0.975201  0.006887  0.268471  1
  O  O37  1  0.910168  0.815964  0.281632  1
  O  O38  1  0.798714  0.906919  0.916802  1
  O  O39  1  0.267742  0.062522  0.485890  1
  O  O40  1  0.201286  0.093081  0.083198  1
  O  O41  1  0.024799  0.993113  0.731529  1
  O  O42  1  0.732258  0.562522  0.014110  1
  O  O43  1  0.362976  0.544556  0.357946  1
  O  O44  1  0.362976  0.955444  0.857946  1
  O  O45  1  0.747583  0.213592  0.045912  1
  O  O46  1  0.252417  0.786408  0.954088  1
  O  O47  1  0.252417  0.713592  0.454088  1
