# generated using pymatgen
data_LiV(PO3)4
_symmetry_space_group_name_H-M   'P 1'
_cell_length_a   5.24603730
_cell_length_b   10.41939164
_cell_length_c   10.41939147
_cell_angle_alpha   71.00528182
_cell_angle_beta   98.39708596
_cell_angle_gamma   98.39708799
_symmetry_Int_Tables_number   1
_chemical_formula_structural   LiV(PO3)4
_chemical_formula_sum   'Li2 V2 P8 O24'
_cell_volume   529.78263751
_cell_formula_units_Z   2
loop_
 _symmetry_equiv_pos_site_id
 _symmetry_equiv_pos_as_xyz
  1  'x, y, z'
loop_
 _atom_site_type_symbol
 _atom_site_label
 _atom_site_symmetry_multiplicity
 _atom_site_fract_x
 _atom_site_fract_y
 _atom_site_fract_z
 _atom_site_occupancy
  Li  Li0  1  0.402450  0.429180  0.429180  1
  Li  Li1  1  0.597550  0.570820  0.570820  1
  V  V2  1  0.000000  0.000000  0.500000  1
  V  V3  1  0.000000  0.500000  0.000000  1
  P  P4  1  0.469959  0.303530  0.060851  1
  P  P5  1  0.178027  0.784761  0.366578  1
  P  P6  1  0.530041  0.696470  0.939149  1
  P  P7  1  0.530041  0.939149  0.696470  1
  P  P8  1  0.469959  0.060851  0.303530  1
  P  P9  1  0.178027  0.366578  0.784761  1
  P  P10  1  0.821973  0.633422  0.215239  1
  P  P11  1  0.821973  0.215239  0.633422  1
  O  O12  1  0.238916  0.668965  0.922350  1
  O  O13  1  0.379967  0.910978  0.293018  1
  O  O14  1  1.000000  0.231845  0.768155  1
  O  O15  1  0.761084  0.331035  0.077650  1
  O  O16  1  0.761084  0.077650  0.331035  1
  O  O17  1  0.684438  0.903061  0.604646  1
  O  O18  1  0.238916  0.922350  0.668965  1
  O  O19  1  0.379967  0.293018  0.910978  1
  O  O20  1  0.620033  0.089022  0.706982  1
  O  O21  1  0.989476  0.167615  0.553953  1
  O  O22  1  0.607741  0.853081  0.853081  1
  O  O23  1  0.315562  0.096939  0.395354  1
  O  O24  1  0.010524  0.832385  0.446047  1
  O  O25  1  0.682523  0.561770  0.337299  1
  O  O26  1  0.010524  0.446047  0.832385  1
  O  O27  1  0.620033  0.706982  0.089022  1
  O  O28  1  0.989476  0.553953  0.167615  1
  O  O29  1  0.000000  0.768155  0.231845  1
  O  O30  1  0.315562  0.395354  0.096939  1
  O  O31  1  0.317477  0.438230  0.662701  1
  O  O32  1  0.684438  0.604646  0.903061  1
  O  O33  1  0.682523  0.337299  0.561770  1
  O  O34  1  0.317477  0.662701  0.438230  1
  O  O35  1  0.392259  0.146919  0.146919  1
