# generated using pymatgen
data_Mn(PO3)4
_symmetry_space_group_name_H-M   'P 1'
_cell_length_a   7.35895481
_cell_length_b   7.31298915
_cell_length_c   10.14025203
_cell_angle_alpha   83.90239177
_cell_angle_beta   66.90114839
_cell_angle_gamma   111.77418723
_symmetry_Int_Tables_number   1
_chemical_formula_structural   Mn(PO3)4
_chemical_formula_sum   'Mn2 P8 O24'
_cell_volume   445.43965241
_cell_formula_units_Z   2
loop_
 _symmetry_equiv_pos_site_id
 _symmetry_equiv_pos_as_xyz
  1  'x, y, z'
loop_
 _atom_site_type_symbol
 _atom_site_label
 _atom_site_symmetry_multiplicity
 _atom_site_fract_x
 _atom_site_fract_y
 _atom_site_fract_z
 _atom_site_occupancy
  O  O0  1  0.491375  0.113337  0.604926  1
  O  O1  1  0.958069  0.329786  0.841828  1
  O  O2  1  0.041932  0.670214  0.158172  1
  O  O3  1  0.116105  0.330486  0.067286  1
  O  O4  1  0.096668  0.811440  0.564090  1
  O  O5  1  0.196848  0.671862  0.341105  1
  O  O6  1  0.036924  0.139431  0.646953  1
  O  O7  1  0.217635  0.530014  0.567262  1
  O  O8  1  0.382237  0.199182  0.082120  1
  O  O9  1  0.496096  0.531662  0.151364  1
  O  O10  1  0.508624  0.886663  0.395074  1
  O  O11  1  0.303000  0.191726  0.352153  1
  O  O12  1  0.306849  0.691663  0.846172  1
  O  O13  1  0.772784  0.902421  0.096915  1
  O  O14  1  0.227217  0.097579  0.903084  1
  O  O15  1  0.903332  0.188560  0.435910  1
  O  O16  1  0.697000  0.808274  0.647846  1
  O  O17  1  0.883896  0.669514  0.932714  1
  O  O18  1  0.503905  0.468338  0.848636  1
  O  O19  1  0.617762  0.800818  0.917880  1
  O  O20  1  0.782365  0.469986  0.432739  1
  O  O21  1  0.963077  0.860569  0.353048  1
  O  O22  1  0.803153  0.328138  0.658896  1
  O  O23  1  0.693150  0.308337  0.153828  1
  P  P24  1  0.284807  0.260848  0.975357  1
  P  P25  1  0.731111  0.254199  0.533371  1
  P  P26  1  1.001560  0.323716  0.687248  1
  P  P27  1  0.268889  0.745801  0.466629  1
  P  P28  1  0.715194  0.739152  0.024642  1
  P  P29  1  0.471903  0.303109  0.189358  1
  P  P30  1  0.528098  0.696891  0.810642  1
  P  P31  1  -0.001561  0.676284  0.312752  1
  Mn  Mn32  1  0.000000  0.000000  0.500000  1
  Mn  Mn33  1  1.000000  0.499999  0.000000  1
