# generated using pymatgen
data_Cr(PO3)3
_symmetry_space_group_name_H-M   'P 1'
_cell_length_a   9.62057750
_cell_length_b   9.36577668
_cell_length_c   9.38388734
_cell_angle_alpha   108.81730378
_cell_angle_beta   104.13207229
_cell_angle_gamma   109.96844784
_symmetry_Int_Tables_number   1
_chemical_formula_structural   Cr(PO3)3
_chemical_formula_sum   'Cr4 P12 O36'
_cell_volume   689.99099764
_cell_formula_units_Z   4
loop_
 _symmetry_equiv_pos_site_id
 _symmetry_equiv_pos_as_xyz
  1  'x, y, z'
loop_
 _atom_site_type_symbol
 _atom_site_label
 _atom_site_symmetry_multiplicity
 _atom_site_fract_x
 _atom_site_fract_y
 _atom_site_fract_z
 _atom_site_occupancy
  Cr  Cr0  1  0.790860  0.699107  0.900488  1
  Cr  Cr1  1  0.728207  0.774001  0.251439  1
  Cr  Cr2  1  0.209140  0.300893  0.099512  1
  Cr  Cr3  1  0.271793  0.225999  0.748561  1
  P  P4  1  0.694904  0.334577  0.571949  1
  P  P5  1  0.592887  0.436673  0.302288  1
  P  P6  1  0.647688  0.389483  0.996897  1
  P  P7  1  0.099324  0.844628  0.486824  1
  P  P8  1  0.352312  0.610517  0.003103  1
  P  P9  1  0.305096  0.665423  0.428051  1
  P  P10  1  0.167922  0.796913  0.064864  1
  P  P11  1  0.923675  0.097291  0.186796  1
  P  P12  1  0.407113  0.563327  0.697712  1
  P  P13  1  0.076325  0.902709  0.813204  1
  P  P14  1  0.832078  0.203087  0.935136  1
  P  P15  1  0.900676  0.155372  0.513176  1
  O  O16  1  0.952585  0.195938  0.371622  1
  O  O17  1  0.915797  0.858467  0.827536  1
  O  O18  1  0.505291  0.740517  0.147627  1
  O  O19  1  0.313839  0.423882  0.966543  1
  O  O20  1  0.294444  0.937059  0.218961  1
  O  O21  1  0.239729  0.511562  0.264754  1
  O  O22  1  0.238690  0.019981  0.570352  1
  O  O23  1  0.048818  0.188045  0.644244  1
  O  O24  1  0.176300  0.831700  0.903370  1
  O  O25  1  0.047415  0.804062  0.628378  1
  O  O26  1  0.951182  0.811955  0.355756  1
  O  O27  1  0.760271  0.488438  0.735246  1
  O  O28  1  0.645225  0.362839  0.154831  1
  O  O29  1  0.007596  0.275877  0.960115  1
  O  O30  1  0.296670  0.585786  0.561900  1
  O  O31  1  0.415565  0.327744  0.248415  1
  O  O32  1  0.494709  0.259483  0.852373  1
  O  O33  1  0.649892  0.623603  0.350974  1
  O  O34  1  0.545916  0.182288  0.514199  1
  O  O35  1  0.584435  0.672256  0.751585  1
  O  O36  1  0.761310  0.980019  0.429648  1
  O  O37  1  0.703330  0.414214  0.438100  1
  O  O38  1  0.183913  0.095103  0.878550  1
  O  O39  1  0.686161  0.576118  0.033457  1
  O  O40  1  0.801822  0.371841  0.987852  1
  O  O41  1  0.705556  0.062941  0.781039  1
  O  O42  1  0.084203  0.141533  0.172464  1
  O  O43  1  0.454084  0.817712  0.485801  1
  O  O44  1  0.823700  0.168300  0.096630  1
  O  O45  1  0.198178  0.628159  0.012148  1
  O  O46  1  0.350108  0.376397  0.649026  1
  O  O47  1  0.855472  0.301284  0.586327  1
  O  O48  1  0.992404  0.724123  0.039885  1
  O  O49  1  0.816087  0.904897  0.121450  1
  O  O50  1  0.354775  0.637161  0.845169  1
  O  O51  1  0.144528  0.698716  0.413673  1
