# generated using pymatgen
data_Li3Mo2P5O18
_symmetry_space_group_name_H-M   'P 1'
_cell_length_a   9.53038207
_cell_length_b   10.66686967
_cell_length_c   6.63340910
_cell_angle_alpha   92.53231470
_cell_angle_beta   92.53900380
_cell_angle_gamma   96.58258843
_symmetry_Int_Tables_number   1
_chemical_formula_structural   Li3Mo2P5O18
_chemical_formula_sum   'Li6 Mo4 P10 O36'
_cell_volume   668.41987464
_cell_formula_units_Z   2
loop_
 _symmetry_equiv_pos_site_id
 _symmetry_equiv_pos_as_xyz
  1  'x, y, z'
loop_
 _atom_site_type_symbol
 _atom_site_label
 _atom_site_symmetry_multiplicity
 _atom_site_fract_x
 _atom_site_fract_y
 _atom_site_fract_z
 _atom_site_occupancy
  Li  Li0  1  0.936489  0.133721  0.011696  1
  Li  Li1  1  0.255409  0.595818  0.559982  1
  Li  Li2  1  0.195329  0.670601  0.130356  1
  Li  Li3  1  0.804671  0.329399  0.869644  1
  Li  Li4  1  0.744591  0.404182  0.440018  1
  Li  Li5  1  0.063511  0.866279  0.988304  1
  Mo  Mo6  1  0.768221  0.952860  0.330449  1
  Mo  Mo7  1  0.645750  0.592506  0.771217  1
  Mo  Mo8  1  0.231779  0.047140  0.669551  1
  Mo  Mo9  1  0.354250  0.407494  0.228783  1
  P  P10  1  0.986094  0.601179  0.780940  1
  P  P11  1  0.013906  0.398821  0.219060  1
  P  P12  1  0.276101  0.097431  0.167272  1
  P  P13  1  0.960880  0.206966  0.512877  1
  P  P14  1  0.593447  0.644320  0.276827  1
  P  P15  1  0.417927  0.822879  0.830047  1
  P  P16  1  0.582073  0.177121  0.169953  1
  P  P17  1  0.723899  0.902569  0.832728  1
  P  P18  1  0.039120  0.793034  0.487123  1
  P  P19  1  0.406554  0.355680  0.723173  1
  O  O20  1  0.252260  0.235773  0.211435  1
  O  O21  1  0.165364  0.743818  0.397872  1
  O  O22  1  0.105507  0.529862  0.721988  1
  O  O23  1  0.055131  0.314534  0.411831  1
  O  O24  1  0.747740  0.764227  0.788565  1
  O  O25  1  0.430475  0.099319  0.084666  1
  O  O26  1  0.749241  0.976415  0.645805  1
  O  O27  1  0.627076  0.788645  0.309840  1
  O  O28  1  0.161167  0.483950  0.213008  1
  O  O29  1  0.178362  0.041343  0.986203  1
  O  O30  1  0.944869  0.685466  0.588169  1
  O  O31  1  0.627597  0.081381  0.325625  1
  O  O32  1  0.834636  0.256182  0.602128  1
  O  O33  1  0.982992  0.309853  0.034076  1
  O  O34  1  0.081263  0.896119  0.664726  1
  O  O35  1  0.838833  0.516050  0.786992  1
  O  O36  1  0.821638  0.958657  0.013797  1
  O  O37  1  0.342993  0.421653  0.541071  1
  O  O38  1  0.455252  0.697857  0.726477  1
  O  O39  1  0.657007  0.578347  0.458929  1
  O  O40  1  0.372924  0.211355  0.690160  1
  O  O41  1  0.652447  0.596096  0.078102  1
  O  O42  1  0.347553  0.403904  0.921898  1
  O  O43  1  0.937114  0.848556  0.334436  1
  O  O44  1  0.372403  0.918619  0.674375  1
  O  O45  1  0.544748  0.302143  0.273523  1
  O  O46  1  0.430861  0.598283  0.261655  1
  O  O47  1  0.680012  0.194878  0.001391  1
  O  O48  1  0.017008  0.690147  0.965924  1
  O  O49  1  0.569525  0.900681  0.915334  1
  O  O50  1  0.319988  0.805122  0.998609  1
  O  O51  1  0.062886  0.151444  0.665564  1
  O  O52  1  0.894493  0.470138  0.278012  1
  O  O53  1  0.569139  0.401717  0.738345  1
  O  O54  1  0.918737  0.103881  0.335274  1
  O  O55  1  0.250759  0.023585  0.354195  1
