# generated using pymatgen
data_Cr4P7O24
_symmetry_space_group_name_H-M   'P 1'
_cell_length_a   10.12129106
_cell_length_b   10.25432260
_cell_length_c   10.91193410
_cell_angle_alpha   112.88405854
_cell_angle_beta   109.13299477
_cell_angle_gamma   104.83893694
_symmetry_Int_Tables_number   1
_chemical_formula_structural   Cr4P7O24
_chemical_formula_sum   'Cr8 P14 O48'
_cell_volume   884.87304255
_cell_formula_units_Z   2
loop_
 _symmetry_equiv_pos_site_id
 _symmetry_equiv_pos_as_xyz
  1  'x, y, z'
loop_
 _atom_site_type_symbol
 _atom_site_label
 _atom_site_symmetry_multiplicity
 _atom_site_fract_x
 _atom_site_fract_y
 _atom_site_fract_z
 _atom_site_occupancy
  Cr  Cr0  1  0.073747  0.689260  0.075829  1
  Cr  Cr1  1  0.573708  0.417536  0.586872  1
  Cr  Cr2  1  0.626624  0.778633  0.114748  1
  Cr  Cr3  1  0.426292  0.582464  0.413128  1
  Cr  Cr4  1  0.373376  0.221367  0.885252  1
  Cr  Cr5  1  0.926253  0.310740  0.924171  1
  Cr  Cr6  1  0.242466  0.847154  0.742528  1
  Cr  Cr7  1  0.757534  0.152846  0.257472  1
  P  P8  1  0.274124  0.132132  0.524023  1
  P  P9  1  0.504833  0.277771  0.241998  1
  P  P10  1  0.383094  0.938110  0.116491  1
  P  P11  1  0.239963  0.807965  0.433570  1
  P  P12  1  0.725876  0.867868  0.475977  1
  P  P13  1  0.616906  0.061890  0.883509  1
  P  P14  1  0.698299  0.489511  0.948294  1
  P  P15  1  0.938185  0.679259  0.738892  1
  P  P16  1  0.999087  0.005851  0.226652  1
  P  P17  1  0.301701  0.510489  0.051706  1
  P  P18  1  0.760037  0.192035  0.566430  1
  P  P19  1  0.000913  0.994149  0.773348  1
  P  P20  1  0.061815  0.320741  0.261108  1
  P  P21  1  0.495167  0.722229  0.758002  1
  O  O22  1  0.570223  0.731775  0.906741  1
  O  O23  1  0.730519  0.646558  0.079771  1
  O  O24  1  0.908008  0.937670  0.597818  1
  O  O25  1  0.719132  0.821066  0.325162  1
  O  O26  1  0.586344  0.360219  0.954024  1
  O  O27  1  0.490392  0.397674  0.372479  1
  O  O28  1  0.995120  0.335090  0.123946  1
  O  O29  1  0.709424  0.162216  0.841688  1
  O  O30  1  0.828707  0.183556  0.460381  1
  O  O31  1  0.959965  0.319061  0.337297  1
  O  O32  1  0.309416  0.888752  0.951782  1
  O  O33  1  0.374669  0.763942  0.462388  1
  O  O34  1  0.673423  0.305118  0.299460  1
  O  O35  1  0.690584  0.111248  0.048218  1
  O  O36  1  0.171293  0.816444  0.539619  1
  O  O37  1  0.012600  0.868094  0.125949  1
  O  O38  1  0.004880  0.664910  0.876054  1
  O  O39  1  0.889351  0.291060  0.730334  1
  O  O40  1  0.169028  0.023062  0.803475  1
  O  O41  1  0.413656  0.639781  0.045976  1
  O  O42  1  0.290576  0.837784  0.158312  1
  O  O43  1  0.598021  0.889060  0.781990  1
  O  O44  1  0.401979  0.110940  0.218010  1
  O  O45  1  0.227384  0.441919  0.373224  1
  O  O46  1  0.429777  0.268225  0.093259  1
  O  O47  1  0.444129  0.042934  0.823980  1
  O  O48  1  0.091992  0.062330  0.402182  1
  O  O49  1  0.509608  0.602326  0.627521  1
  O  O50  1  0.040035  0.680939  0.662703  1
  O  O51  1  0.555871  0.957066  0.176020  1
  O  O52  1  0.933379  0.853575  0.797064  1
  O  O53  1  0.639369  0.739374  0.493172  1
  O  O54  1  0.830972  0.976937  0.196525  1
  O  O55  1  0.326577  0.694882  0.700540  1
  O  O56  1  0.772616  0.558081  0.626776  1
  O  O57  1  0.987400  0.131906  0.874051  1
  O  O58  1  0.681243  0.010265  0.531193  1
  O  O59  1  0.110649  0.708940  0.269666  1
  O  O60  1  0.360631  0.260626  0.506828  1
  O  O61  1  0.136349  0.509361  0.009988  1
  O  O62  1  0.269481  0.353442  0.920229  1
  O  O63  1  0.280868  0.178934  0.674838  1
  O  O64  1  0.066621  0.146425  0.202936  1
  O  O65  1  0.370679  0.528248  0.206475  1
  O  O66  1  0.625331  0.236058  0.537612  1
  O  O67  1  0.863651  0.490639  0.990012  1
  O  O68  1  0.629321  0.471752  0.793525  1
  O  O69  1  0.318757  0.989735  0.468807  1
