# generated using pymatgen
data_CuS
_symmetry_space_group_name_H-M   'P 1'
_cell_length_a   3.34701463
_cell_length_b   18.44417653
_cell_length_c   3.34701439
_cell_angle_alpha   90.00000000
_cell_angle_beta   119.99999775
_cell_angle_gamma   90.00000000
_symmetry_Int_Tables_number   1
_chemical_formula_structural   CuS
_chemical_formula_sum   'Cu6 S6'
_cell_volume   178.93903944
_cell_formula_units_Z   6
loop_
 _symmetry_equiv_pos_site_id
 _symmetry_equiv_pos_as_xyz
  1  'x, y, z'
loop_
 _atom_site_type_symbol
 _atom_site_label
 _atom_site_symmetry_multiplicity
 _atom_site_fract_x
 _atom_site_fract_y
 _atom_site_fract_z
 _atom_site_occupancy
  Cu  Cu0  1  0.666667  0.082523  0.333333  1
  Cu  Cu1  1  0.333333  0.917422  0.666667  1
  Cu  Cu2  1  0.333333  0.582679  0.666667  1
  Cu  Cu3  1  0.333333  0.249908  0.666667  1
  Cu  Cu4  1  0.666667  0.750166  0.333333  1
  Cu  Cu5  1  0.666667  0.417212  0.333333  1
  S  S6  1  0.000000  0.167336  0.000000  1
  S  S7  1  0.000000  0.667776  0.000000  1
  S  S8  1  0.000000  0.332361  0.000000  1
  S  S9  1  0.000000  0.999901  0.000000  1
  S  S10  1  0.000000  0.832809  0.000000  1
  S  S11  1  0.000000  0.499907  0.000000  1
