# generated using pymatgen
data_Li2MnSiO4
_symmetry_space_group_name_H-M   'P 1'
_cell_length_a   5.05590163
_cell_length_b   5.45142567
_cell_length_c   6.37348545
_cell_angle_alpha   90.00000000
_cell_angle_beta   90.00000000
_cell_angle_gamma   90.00000000
_symmetry_Int_Tables_number   1
_chemical_formula_structural   Li2MnSiO4
_chemical_formula_sum   'Li4 Mn2 Si2 O8'
_cell_volume   175.66518973
_cell_formula_units_Z   2
loop_
 _symmetry_equiv_pos_site_id
 _symmetry_equiv_pos_as_xyz
  1  'x, y, z'
loop_
 _atom_site_type_symbol
 _atom_site_label
 _atom_site_symmetry_multiplicity
 _atom_site_fract_x
 _atom_site_fract_y
 _atom_site_fract_z
 _atom_site_occupancy
  Li  Li0  1  0.556600  0.330918  0.748790  1
  Li  Li1  1  0.556600  0.330918  0.251210  1
  Li  Li2  1  0.056600  0.669082  0.248790  1
  Li  Li3  1  0.056600  0.669082  0.751210  1
  Mn  Mn4  1  0.559153  0.834257  0.000000  1
  Mn  Mn5  1  0.059153  0.165743  0.500000  1
  Si  Si6  1  0.049984  0.178850  0.000000  1
  Si  Si7  1  0.549984  0.821150  0.500000  1
  O  O8  1  0.723098  0.186241  0.000000  1
  O  O9  1  0.162188  0.320589  0.788134  1
  O  O10  1  0.662188  0.679411  0.288134  1
  O  O11  1  0.223098  0.813759  0.500000  1
  O  O12  1  0.145227  0.886751  0.000000  1
  O  O13  1  0.645227  0.113249  0.500000  1
  O  O14  1  0.662188  0.679411  0.711866  1
  O  O15  1  0.162188  0.320589  0.211866  1
