# generated using pymatgen
data_Li2Ni(PO4)2
_symmetry_space_group_name_H-M   'P 1'
_cell_length_a   4.90913589
_cell_length_b   17.60255699
_cell_length_c   6.58876073
_cell_angle_alpha   90.00000000
_cell_angle_beta   93.58073567
_cell_angle_gamma   90.00000000
_symmetry_Int_Tables_number   1
_chemical_formula_structural   Li2Ni(PO4)2
_chemical_formula_sum   'Li8 Ni4 P8 O32'
_cell_volume   568.24534114
_cell_formula_units_Z   4
loop_
 _symmetry_equiv_pos_site_id
 _symmetry_equiv_pos_as_xyz
  1  'x, y, z'
loop_
 _atom_site_type_symbol
 _atom_site_label
 _atom_site_symmetry_multiplicity
 _atom_site_fract_x
 _atom_site_fract_y
 _atom_site_fract_z
 _atom_site_occupancy
  Li  Li0  1  0.232021  0.556617  0.220145  1
  Li  Li1  1  0.775281  0.115237  0.522027  1
  Li  Li2  1  0.724719  0.615237  0.977973  1
  Li  Li3  1  0.212014  0.884051  0.521831  1
  Li  Li4  1  0.812560  0.302813  0.196164  1
  Li  Li5  1  0.267979  0.056617  0.279855  1
  Li  Li6  1  0.287986  0.384051  0.978169  1
  Li  Li7  1  0.687440  0.802813  0.303836  1
  Ni  Ni8  1  0.301711  0.372293  0.490490  1
  Ni  Ni9  1  0.703944  0.629776  0.516323  1
  Ni  Ni10  1  0.198289  0.872293  0.009510  1
  Ni  Ni11  1  0.796056  0.129776  0.983677  1
  P  P12  1  0.179315  0.715318  0.281709  1
  P  P13  1  0.778854  0.465016  0.277213  1
  P  P14  1  0.822614  0.284539  0.715895  1
  P  P15  1  0.721146  0.965016  0.222787  1
  P  P16  1  0.320685  0.215318  0.218291  1
  P  P17  1  0.282471  0.034405  0.777837  1
  P  P18  1  0.217529  0.534405  0.722163  1
  P  P19  1  0.677386  0.784539  0.784105  1
  O  O20  1  0.361857  0.555999  0.930087  1
  O  O21  1  0.491411  0.701796  0.312133  1
  O  O22  1  0.641880  0.697330  0.763603  1
  O  O23  1  0.641177  0.432960  0.463207  1
  O  O24  1  0.064560  0.663169  0.110955  1
  O  O25  1  0.415902  0.939896  0.220527  1
  O  O26  1  0.144558  0.068032  0.962347  1
  O  O27  1  0.387045  0.301397  0.253845  1
  O  O28  1  0.630196  0.433104  0.083746  1
  O  O29  1  0.947102  0.322763  0.911237  1
  O  O30  1  0.466853  0.196155  0.022890  1
  O  O31  1  0.008589  0.201796  0.187867  1
  O  O32  1  0.112955  0.801397  0.246155  1
  O  O33  1  0.858823  0.932960  0.036793  1
  O  O34  1  0.869804  0.933104  0.416254  1
  O  O35  1  0.283849  0.946232  0.784343  1
  O  O36  1  0.552898  0.822763  0.588763  1
  O  O37  1  0.539781  0.809221  0.979781  1
  O  O38  1  0.515060  0.305572  0.695457  1
  O  O39  1  0.858120  0.197330  0.736397  1
  O  O40  1  0.580947  0.063341  0.776716  1
  O  O41  1  0.216151  0.446232  0.715657  1
  O  O42  1  0.138143  0.055999  0.569913  1
  O  O43  1  0.960219  0.309221  0.520219  1
  O  O44  1  0.919053  0.563341  0.723284  1
  O  O45  1  0.775322  0.553384  0.277256  1
  O  O46  1  0.084098  0.439896  0.279473  1
  O  O47  1  0.984940  0.805572  0.804543  1
  O  O48  1  0.724678  0.053384  0.222744  1
  O  O49  1  0.355442  0.568032  0.537653  1
  O  O50  1  0.435440  0.163169  0.389045  1
  O  O51  1  0.033147  0.696155  0.477110  1
