# generated using pymatgen
data_Mo2P2O11
_symmetry_space_group_name_H-M   'P 1'
_cell_length_a   7.63119868
_cell_length_b   6.43789033
_cell_length_c   9.15299484
_cell_angle_alpha   90.07860487
_cell_angle_beta   104.95417748
_cell_angle_gamma   89.95247774
_symmetry_Int_Tables_number   1
_chemical_formula_structural   Mo2P2O11
_chemical_formula_sum   'Mo4 P4 O22'
_cell_volume   434.44598376
_cell_formula_units_Z   2
loop_
 _symmetry_equiv_pos_site_id
 _symmetry_equiv_pos_as_xyz
  1  'x, y, z'
loop_
 _atom_site_type_symbol
 _atom_site_label
 _atom_site_symmetry_multiplicity
 _atom_site_fract_x
 _atom_site_fract_y
 _atom_site_fract_z
 _atom_site_occupancy
  Mo  Mo0  1  0.179941  0.249065  0.856949  1
  Mo  Mo1  1  0.392755  0.248102  0.291379  1
  Mo  Mo2  1  0.607245  0.751898  0.708621  1
  Mo  Mo3  1  0.820059  0.750935  0.143051  1
  O  O4  1  0.037478  0.246196  0.681292  1
  O  O5  1  0.192463  0.942862  0.886318  1
  O  O6  1  0.191791  0.556054  0.883342  1
  O  O7  1  0.095985  0.248964  0.252118  1
  O  O8  1  0.017337  0.748098  0.037079  1
  O  O9  1  0.407189  0.249862  0.800126  1
  O  O10  1  0.375559  0.754393  0.649643  1
  O  O11  1  0.367631  0.248967  0.517656  1
  O  O12  1  0.363725  0.939010  0.304304  1
  O  O13  1  0.366689  0.557492  0.305451  1
  O  O14  1  0.354346  0.249045  0.090090  1
  O  O15  1  0.645654  0.750955  0.909910  1
  O  O16  1  0.633311  0.442508  0.694549  1
  O  O17  1  0.636275  0.060990  0.695696  1
  O  O18  1  0.632369  0.751033  0.482344  1
  O  O19  1  0.624441  0.245607  0.350357  1
  O  O20  1  0.592811  0.750138  0.199874  1
  O  O21  1  0.982663  0.251902  0.962921  1
  O  O22  1  0.904015  0.751036  0.747882  1
  O  O23  1  0.808209  0.443946  0.116658  1
  O  O24  1  0.807537  0.057138  0.113682  1
  O  O25  1  0.962522  0.753804  0.318708  1
  P  P26  1  0.067726  0.749417  0.881885  1
  P  P27  1  0.508599  0.250669  0.669477  1
  P  P28  1  0.491401  0.749331  0.330523  1
  P  P29  1  0.932274  0.250583  0.118115  1
