# generated using pymatgen
data_K2VPO6
_symmetry_space_group_name_H-M   'P 1'
_cell_length_a   7.01653053
_cell_length_b   7.69719505
_cell_length_c   13.63017292
_cell_angle_alpha   90.00000000
_cell_angle_beta   90.00000000
_cell_angle_gamma   111.40994220
_symmetry_Int_Tables_number   1
_chemical_formula_structural   K2VPO6
_chemical_formula_sum   'K8 V4 P4 O24'
_cell_volume   685.33427583
_cell_formula_units_Z   4
loop_
 _symmetry_equiv_pos_site_id
 _symmetry_equiv_pos_as_xyz
  1  'x, y, z'
loop_
 _atom_site_type_symbol
 _atom_site_label
 _atom_site_symmetry_multiplicity
 _atom_site_fract_x
 _atom_site_fract_y
 _atom_site_fract_z
 _atom_site_occupancy
  K  K0  1  0.302078  0.585334  0.418449  1
  K  K1  1  0.859933  0.947937  0.366848  1
  K  K2  1  0.697922  0.414666  0.581551  1
  K  K3  1  0.197922  0.914666  0.918449  1
  K  K4  1  0.802078  0.085334  0.081551  1
  K  K5  1  0.140067  0.052063  0.633152  1
  K  K6  1  0.359933  0.447937  0.133152  1
  K  K7  1  0.640067  0.552063  0.866848  1
  V  V8  1  0.703838  0.100308  0.799180  1
  V  V9  1  0.296162  0.899692  0.200820  1
  V  V10  1  0.796162  0.399692  0.299180  1
  V  V11  1  0.203838  0.600308  0.700820  1
  P  P12  1  0.426266  0.198067  0.377537  1
  P  P13  1  0.926266  0.698067  0.122463  1
  P  P14  1  0.573734  0.801933  0.622463  1
  P  P15  1  0.073734  0.301933  0.877537  1
  O  O16  1  0.327097  0.232487  0.470225  1
  O  O17  1  0.827097  0.732487  0.029775  1
  O  O18  1  0.281815  0.015991  0.326316  1
  O  O19  1  0.454877  0.793496  0.237484  1
  O  O20  1  0.218185  0.484009  0.826316  1
  O  O21  1  0.718185  0.984009  0.673684  1
  O  O22  1  0.075229  0.424900  0.626933  1
  O  O23  1  0.352940  0.808291  0.605591  1
  O  O24  1  0.781815  0.515991  0.173684  1
  O  O25  1  0.510879  0.633768  0.696254  1
  O  O26  1  0.424771  0.075100  0.126933  1
  O  O27  1  0.647060  0.191709  0.394409  1
  O  O28  1  0.045123  0.706504  0.737484  1
  O  O29  1  0.545123  0.206504  0.762516  1
  O  O30  1  0.010879  0.133768  0.803746  1
  O  O31  1  0.989121  0.866232  0.196254  1
  O  O32  1  0.489121  0.366232  0.303746  1
  O  O33  1  0.147060  0.691709  0.105591  1
  O  O34  1  0.852940  0.308291  0.894409  1
  O  O35  1  0.172903  0.267513  0.970225  1
  O  O36  1  0.575229  0.924900  0.873067  1
  O  O37  1  0.924771  0.575100  0.373067  1
  O  O38  1  0.672903  0.767513  0.529775  1
  O  O39  1  0.954877  0.293496  0.262516  1
