# generated using pymatgen
data_Cr4(PO4)3
_symmetry_space_group_name_H-M   'P 1'
_cell_length_a   6.21497865
_cell_length_b   15.09141778
_cell_length_c   10.29561939
_cell_angle_alpha   90.00000000
_cell_angle_beta   90.00000000
_cell_angle_gamma   90.00000000
_symmetry_Int_Tables_number   1
_chemical_formula_structural   Cr4(PO4)3
_chemical_formula_sum   'Cr16 P12 O48'
_cell_volume   965.65537495
_cell_formula_units_Z   4
loop_
 _symmetry_equiv_pos_site_id
 _symmetry_equiv_pos_as_xyz
  1  'x, y, z'
loop_
 _atom_site_type_symbol
 _atom_site_label
 _atom_site_symmetry_multiplicity
 _atom_site_fract_x
 _atom_site_fract_y
 _atom_site_fract_z
 _atom_site_occupancy
  Cr  Cr0  1  0.912183  0.129168  0.146674  1
  Cr  Cr1  1  0.412183  0.129168  0.353326  1
  Cr  Cr2  1  0.139932  0.889710  0.439156  1
  Cr  Cr3  1  0.912183  0.370832  0.146674  1
  Cr  Cr4  1  0.639932  0.889710  0.060844  1
  Cr  Cr5  1  0.587817  0.870832  0.646674  1
  Cr  Cr6  1  0.412183  0.370832  0.353326  1
  Cr  Cr7  1  0.087817  0.629168  0.853326  1
  Cr  Cr8  1  0.587817  0.629168  0.646674  1
  Cr  Cr9  1  0.360068  0.110290  0.939156  1
  Cr  Cr10  1  0.360068  0.389710  0.939156  1
  Cr  Cr11  1  0.860068  0.110290  0.560844  1
  Cr  Cr12  1  0.087817  0.870832  0.853326  1
  Cr  Cr13  1  0.139932  0.610290  0.439156  1
  Cr  Cr14  1  0.860068  0.389710  0.560844  1
  Cr  Cr15  1  0.639932  0.610290  0.060844  1
  P  P16  1  0.498626  0.250000  0.097778  1
  P  P17  1  0.136983  0.571971  0.137850  1
  P  P18  1  0.998626  0.250000  0.402222  1
  P  P19  1  0.363017  0.428029  0.637850  1
  P  P20  1  0.636983  0.928029  0.362150  1
  P  P21  1  0.863017  0.428029  0.862150  1
  P  P22  1  0.636983  0.571971  0.362150  1
  P  P23  1  0.863017  0.071971  0.862150  1
  P  P24  1  0.363017  0.071971  0.637850  1
  P  P25  1  0.501374  0.750000  0.902222  1
  P  P26  1  0.001374  0.750000  0.597778  1
  P  P27  1  0.136983  0.928029  0.137850  1
  O  O28  1  0.032848  0.115277  0.958887  1
  O  O29  1  0.248464  0.250000  0.382989  1
  O  O30  1  0.096537  0.662354  0.652864  1
  O  O31  1  0.185382  0.867592  0.252485  1
  O  O32  1  0.185382  0.632408  0.252485  1
  O  O33  1  0.096537  0.837646  0.652864  1
  O  O34  1  0.596537  0.662354  0.847136  1
  O  O35  1  0.251536  0.750000  0.882989  1
  O  O36  1  0.532848  0.115277  0.541113  1
  O  O37  1  0.057181  0.017113  0.190711  1
  O  O38  1  0.467152  0.884723  0.458887  1
  O  O39  1  0.596537  0.837646  0.847136  1
  O  O40  1  0.685382  0.867592  0.247515  1
  O  O41  1  0.903463  0.337646  0.347136  1
  O  O42  1  0.837750  0.560452  0.453549  1
  O  O43  1  0.467152  0.615277  0.458887  1
  O  O44  1  0.662250  0.439548  0.953549  1
  O  O45  1  0.942819  0.517113  0.809289  1
  O  O46  1  0.337750  0.939548  0.046451  1
  O  O47  1  0.662250  0.060452  0.953549  1
  O  O48  1  0.751536  0.750000  0.617011  1
  O  O49  1  0.967152  0.615277  0.041113  1
  O  O50  1  0.568652  0.750000  0.047915  1
  O  O51  1  0.557181  0.017113  0.309289  1
  O  O52  1  0.903463  0.162354  0.347136  1
  O  O53  1  0.532848  0.384723  0.541113  1
  O  O54  1  0.403463  0.337646  0.152864  1
  O  O55  1  0.814618  0.132408  0.747515  1
  O  O56  1  0.068652  0.750000  0.452085  1
  O  O57  1  0.557181  0.482887  0.309289  1
  O  O58  1  0.442819  0.517113  0.690711  1
  O  O59  1  0.431348  0.250000  0.952085  1
  O  O60  1  0.314618  0.132408  0.752485  1
  O  O61  1  0.442819  0.982887  0.690711  1
  O  O62  1  0.403463  0.162354  0.152864  1
  O  O63  1  0.814618  0.367592  0.747515  1
  O  O64  1  0.942819  0.982887  0.809289  1
  O  O65  1  0.837750  0.939548  0.453549  1
  O  O66  1  0.057181  0.482887  0.190711  1
  O  O67  1  0.337750  0.560452  0.046451  1
  O  O68  1  0.032848  0.384723  0.958887  1
  O  O69  1  0.967152  0.884723  0.041113  1
  O  O70  1  0.685382  0.632408  0.247515  1
  O  O71  1  0.748464  0.250000  0.117011  1
  O  O72  1  0.162250  0.439548  0.546451  1
  O  O73  1  0.314618  0.367592  0.752485  1
  O  O74  1  0.162250  0.060452  0.546451  1
  O  O75  1  0.931348  0.250000  0.547915  1
