# generated using pymatgen
data_LiCuPO4
_symmetry_space_group_name_H-M   'P 1'
_cell_length_a   6.45488236
_cell_length_b   9.25373094
_cell_length_c   4.87457947
_cell_angle_alpha   90.00000000
_cell_angle_beta   96.87201793
_cell_angle_gamma   90.00000000
_symmetry_Int_Tables_number   1
_chemical_formula_structural   LiCuPO4
_chemical_formula_sum   'Li4 Cu4 P4 O16'
_cell_volume   289.07536066
_cell_formula_units_Z   4
loop_
 _symmetry_equiv_pos_site_id
 _symmetry_equiv_pos_as_xyz
  1  'x, y, z'
loop_
 _atom_site_type_symbol
 _atom_site_label
 _atom_site_symmetry_multiplicity
 _atom_site_fract_x
 _atom_site_fract_y
 _atom_site_fract_z
 _atom_site_occupancy
  Cu  Cu0  1  0.000000  0.500000  0.500000  1
  Cu  Cu1  1  0.000000  0.000000  0.000000  1
  Cu  Cu2  1  0.500000  0.500000  0.500000  1
  Cu  Cu3  1  0.500000  0.000000  0.000000  1
  Li  Li4  1  0.181432  0.148599  0.525980  1
  Li  Li5  1  0.318568  0.648599  0.974020  1
  Li  Li6  1  0.681432  0.351401  0.025980  1
  Li  Li7  1  0.818568  0.851401  0.474020  1
  O  O8  1  -0.010700  0.381308  0.165714  1
  O  O9  1  0.114068  0.904698  0.345504  1
  O  O10  1  0.163256  0.346059  0.716757  1
  O  O11  1  0.200139  0.160021  0.104280  1
  O  O12  1  0.299861  0.660021  0.395720  1
  O  O13  1  0.336744  0.846059  0.783243  1
  O  O14  1  0.385932  0.404698  0.154496  1
  O  O15  1  0.489300  0.118692  0.665714  1
  O  O16  1  0.510700  0.881308  0.334286  1
  O  O17  1  0.614068  0.595302  0.845504  1
  O  O18  1  0.663256  0.153941  0.216757  1
  O  O19  1  0.700139  0.339979  0.604280  1
  O  O20  1  0.799861  0.839979  0.895720  1
  O  O21  1  0.836744  0.653941  0.283243  1
  O  O22  1  0.885932  0.095302  0.654496  1
  O  O23  1  1.010700  0.618692  0.834286  1
  P  P24  1  0.181321  0.325642  0.035377  1
  P  P25  1  0.318679  0.825642  0.464623  1
  P  P26  1  0.681321  0.174358  0.535377  1
  P  P27  1  0.818679  0.674358  0.964623  1
