# generated using pymatgen
data_Li2Co(PO3)4
_symmetry_space_group_name_H-M   'P 1'
_cell_length_a   7.36844821
_cell_length_b   7.30787728
_cell_length_c   5.15756982
_cell_angle_alpha   84.85999643
_cell_angle_beta   113.00718468
_cell_angle_gamma   110.84943974
_symmetry_Int_Tables_number   1
_chemical_formula_structural   Li2Co(PO3)4
_chemical_formula_sum   'Li2 Co1 P4 O12'
_cell_volume   238.49685209
_cell_formula_units_Z   1
loop_
 _symmetry_equiv_pos_site_id
 _symmetry_equiv_pos_as_xyz
  1  'x, y, z'
loop_
 _atom_site_type_symbol
 _atom_site_label
 _atom_site_symmetry_multiplicity
 _atom_site_fract_x
 _atom_site_fract_y
 _atom_site_fract_z
 _atom_site_occupancy
  Li  Li0  1  0.274995  0.437837  0.941631  1
  Li  Li1  1  0.725005  0.562163  0.058369  1
  O  O2  1  0.263181  0.207701  0.249331  1
  O  O3  1  0.014871  0.797028  0.282262  1
  O  O4  1  0.177007  0.653334  0.757345  1
  O  O5  1  0.366452  0.773574  0.412618  1
  O  O6  1  0.676433  0.986356  0.307354  1
  O  O7  1  0.441361  0.381193  0.749792  1
  O  O8  1  0.822993  0.346667  0.242655  1
  O  O9  1  0.985129  0.202973  0.717736  1
  O  O10  1  0.558639  0.618807  0.250208  1
  O  O11  1  0.736819  0.792299  0.750667  1
  O  O12  1  0.633548  0.226427  0.587381  1
  O  O13  1  0.323567  0.013645  0.692647  1
  P  P14  1  0.407656  0.220908  0.558948  1
  P  P15  1  0.207418  0.793702  0.540750  1
  P  P16  1  0.592345  0.779092  0.441052  1
  P  P17  1  0.792582  0.206298  0.459251  1
  Co  Co18  1  0.000000  0.000000  0.000000  1
