# generated using pymatgen
data_LiMnPO4
_symmetry_space_group_name_H-M   'P 1'
_cell_length_a   10.09127407
_cell_length_b   10.23654789
_cell_length_c   17.52753450
_cell_angle_alpha   105.87000105
_cell_angle_beta   106.73086513
_cell_angle_gamma   60.46965361
_symmetry_Int_Tables_number   1
_chemical_formula_structural   LiMnPO4
_chemical_formula_sum   'Li16 Mn16 P16 O64'
_cell_volume   1489.77117779
_cell_formula_units_Z   16
loop_
 _symmetry_equiv_pos_site_id
 _symmetry_equiv_pos_as_xyz
  1  'x, y, z'
loop_
 _atom_site_type_symbol
 _atom_site_label
 _atom_site_symmetry_multiplicity
 _atom_site_fract_x
 _atom_site_fract_y
 _atom_site_fract_z
 _atom_site_occupancy
  Li  Li0  1  0.741993  0.376283  0.936164  1
  Li  Li1  1  0.876808  0.318606  0.437386  1
  Li  Li2  1  0.742170  0.877415  0.936045  1
  Li  Li3  1  0.506439  0.060566  0.686254  1
  Li  Li4  1  0.558527  0.501711  0.684932  1
  Li  Li5  1  0.376896  0.819464  0.436985  1
  Li  Li6  1  0.630920  0.496061  0.186912  1
  Li  Li7  1  0.624738  0.001706  0.184925  1
  Li  Li8  1  0.241978  0.818600  0.937372  1
  Li  Li9  1  0.006658  0.553471  0.686944  1
  Li  Li10  1  0.240623  0.319447  0.936983  1
  Li  Li11  1  0.059949  0.996052  0.686916  1
  Li  Li12  1  0.316440  0.377401  0.436026  1
  Li  Li13  1  0.126824  0.053470  0.186949  1
  Li  Li14  1  0.119276  0.560553  0.186254  1
  Li  Li15  1  0.817885  0.876293  0.436149  1
  Mn  Mn16  1  0.875479  0.440484  0.811933  1
  Mn  Mn17  1  0.870446  0.945972  0.812555  1
  Mn  Mn18  1  0.996071  0.446053  0.312564  1
  Mn  Mn19  1  0.258158  0.619949  0.062555  1
  Mn  Mn20  1  0.369489  0.502229  0.812861  1
  Mn  Mn21  1  0.374400  0.997278  0.813652  1
  Mn  Mn22  1  0.757037  0.179742  0.061548  1
  Mn  Mn23  1  0.124704  0.679774  0.561535  1
  Mn  Mn24  1  0.622633  0.178444  0.561572  1
  Mn  Mn25  1  0.495988  0.940471  0.311910  1
  Mn  Mn26  1  0.184434  0.119934  0.562550  1
  Mn  Mn27  1  0.441980  0.497265  0.313645  1
  Mn  Mn28  1  0.684679  0.618639  0.562185  1
  Mn  Mn29  1  0.258814  0.118676  0.062185  1
  Mn  Mn30  1  0.760504  0.678449  0.061605  1
  Mn  Mn31  1  0.941120  0.002264  0.312872  1
  P  P32  1  0.935264  0.872436  0.122827  1
  P  P33  1  0.315164  0.372427  0.622830  1
  P  P34  1  0.371807  0.818482  0.624621  1
  P  P35  1  0.684520  0.625426  0.374975  1
  P  P36  1  0.816821  0.869319  0.623430  1
  P  P37  1  0.183226  0.129339  0.375054  1
  P  P38  1  0.562047  0.183824  0.873446  1
  P  P39  1  0.937302  0.369294  0.123442  1
  P  P40  1  0.628289  0.179450  0.373487  1
  P  P41  1  0.872829  0.314180  0.624632  1
  P  P42  1  0.127580  0.683831  0.373429  1
  P  P43  1  0.062478  0.629366  0.875051  1
  P  P44  1  0.565792  0.679428  0.873504  1
  P  P45  1  0.437592  0.814203  0.124621  1
  P  P46  1  0.064995  0.125426  0.874953  1
  P  P47  1  0.434320  0.318467  0.124616  1
  O  O48  1  0.889582  0.832667  0.548329  1
  O  O49  1  0.129912  0.582531  0.796669  1
  O  O50  1  0.649734  0.000753  0.610822  1
  O  O51  1  0.826586  0.833001  0.047129  1
  O  O52  1  0.046856  0.496086  0.891153  1
  O  O53  1  0.330037  0.884786  0.047735  1
  O  O54  1  0.729405  0.308724  0.637441  1
  O  O55  1  0.330741  0.385585  0.046198  1
  O  O56  1  0.676575  0.599021  0.946990  1
  O  O57  1  0.168585  0.600871  0.445648  1
  O  O58  1  0.387534  0.332975  0.547112  1
  O  O59  1  0.588459  0.074220  0.297522  1
  O  O60  1  0.099214  0.168601  0.446061  1
  O  O61  1  0.861998  0.417643  0.199093  1
  O  O62  1  0.959473  0.003236  0.110416  1
  O  O63  1  0.676197  0.100882  0.945667  1
  O  O64  1  0.826057  0.332660  0.048353  1
  O  O65  1  0.634869  0.574232  0.797531  1
  O  O66  1  0.399826  0.697922  0.864355  1
  O  O67  1  0.084286  0.082466  0.296663  1
  O  O68  1  0.194761  0.268911  0.364279  1
  O  O69  1  0.850151  0.493604  0.391651  1
  O  O70  1  0.597609  0.309515  0.138171  1
  O  O71  1  0.418243  0.424016  0.696589  1
  O  O72  1  0.312899  0.230601  0.637395  1
  O  O73  1  0.178876  0.167343  0.946131  1
  O  O74  1  0.854370  0.924051  0.196596  1
  O  O75  1  0.348248  0.996105  0.391161  1
  O  O76  1  0.919454  0.917635  0.699080  1
  O  O77  1  0.488798  0.339441  0.384734  1
  O  O78  1  0.586469  0.575202  0.297601  1
  O  O79  1  0.413889  0.929536  0.695856  1
  O  O80  1  0.960374  0.500706  0.110822  1
  O  O81  1  0.671479  0.099026  0.446977  1
  O  O82  1  0.083447  0.583235  0.296160  1
  O  O83  1  0.549726  0.345330  0.886130  1
  O  O84  1  0.695567  0.764723  0.363298  1
  O  O85  1  0.178181  0.668676  0.946071  1
  O  O86  1  0.629494  0.083231  0.796177  1
  O  O87  1  0.398245  0.197167  0.864406  1
  O  O88  1  0.352421  0.429495  0.195853  1
  O  O89  1  0.509010  0.656362  0.617182  1
  O  O90  1  0.008138  0.151161  0.615906  1
  O  O91  1  0.599870  0.667315  0.446135  1
  O  O92  1  0.456580  0.651177  0.115880  1
  O  O93  1  0.451812  0.156333  0.117163  1
  O  O94  1  0.329867  0.885595  0.546199  1
  O  O95  1  0.096192  0.227172  0.137065  1
  O  O96  1  0.599298  0.808744  0.137453  1
  O  O97  1  0.135946  0.075214  0.797597  1
  O  O98  1  0.268991  0.697180  0.364385  1
  O  O99  1  0.093901  0.730597  0.137393  1
  O  O100  1  0.917250  0.420472  0.698346  1
  O  O101  1  0.766545  0.198022  0.364310  1
  O  O102  1  0.360598  0.920454  0.198338  1
  O  O103  1  0.991077  0.845315  0.386117  1
  O  O104  1  0.813648  0.727207  0.637050  1
  O  O105  1  0.902966  0.264701  0.863268  1
  O  O106  1  0.900564  0.768876  0.864265  1
  O  O107  1  0.231039  0.809509  0.638166  1
  O  O108  1  0.832958  0.384752  0.547744  1
  O  O109  1  0.047887  0.993578  0.891617  1
  O  O110  1  0.147765  0.503249  0.610433  1
  O  O111  1  0.556467  0.839450  0.884750  1
