# generated using pymatgen
data_LiCo(PO3)4
_symmetry_space_group_name_H-M   'P 1'
_cell_length_a   7.25327201
_cell_length_b   9.16139188
_cell_length_c   7.65333480
_cell_angle_alpha   90.00000000
_cell_angle_beta   109.46168977
_cell_angle_gamma   90.00000000
_symmetry_Int_Tables_number   1
_chemical_formula_structural   LiCo(PO3)4
_chemical_formula_sum   'Li2 Co2 P8 O24'
_cell_volume   479.50750754
_cell_formula_units_Z   2
loop_
 _symmetry_equiv_pos_site_id
 _symmetry_equiv_pos_as_xyz
  1  'x, y, z'
loop_
 _atom_site_type_symbol
 _atom_site_label
 _atom_site_symmetry_multiplicity
 _atom_site_fract_x
 _atom_site_fract_y
 _atom_site_fract_z
 _atom_site_occupancy
  Li  Li0  1  0.871314  0.332909  0.662518  1
  Li  Li1  1  0.628686  0.832909  0.837482  1
  Co  Co2  1  0.005974  0.000102  0.007659  1
  Co  Co3  1  0.494026  0.500102  0.492341  1
  P  P4  1  0.339544  0.710917  0.118780  1
  P  P5  1  0.202264  0.586412  0.728209  1
  P  P6  1  0.651942  0.288109  0.890712  1
  P  P7  1  0.297736  0.086412  0.771791  1
  P  P8  1  0.805783  0.419434  0.272007  1
  P  P9  1  0.848058  0.788109  0.609288  1
  P  P10  1  0.160456  0.210918  0.381220  1
  P  P11  1  0.694217  0.919434  0.227993  1
  O  O12  1  0.595513  0.057827  0.237187  1
  O  O13  1  0.810427  0.904965  0.092561  1
  O  O14  1  0.092798  0.449891  0.726977  1
  O  O15  1  0.407202  0.949891  0.773023  1
  O  O16  1  0.155023  0.092161  0.244177  1
  O  O17  1  0.319154  0.321965  0.422697  1
  O  O18  1  0.435360  0.225891  0.831383  1
  O  O19  1  0.657964  0.399753  0.746401  1
  O  O20  1  0.946541  0.279365  0.326429  1
  O  O21  1  0.689573  0.404965  0.407439  1
  O  O22  1  0.159369  0.129763  0.567819  1
  O  O23  1  0.904487  0.557827  0.262813  1
  O  O24  1  0.340602  0.593722  0.616950  1
  O  O25  1  0.180846  0.821965  0.077303  1
  O  O26  1  0.340631  0.629763  0.932181  1
  O  O27  1  0.846017  0.870033  0.425419  1
  O  O28  1  0.690907  0.675460  0.578693  1
  O  O29  1  0.064640  0.725891  0.668617  1
  O  O30  1  0.159398  0.093722  0.883050  1
  O  O31  1  0.809093  0.175460  0.921307  1
  O  O32  1  0.653983  0.370033  0.074581  1
  O  O33  1  0.344977  0.592161  0.255823  1
  O  O34  1  0.553459  0.779365  0.173571  1
  O  O35  1  0.842036  0.899753  0.753599  1
