# generated using pymatgen
data_LiCr(SiO3)2
_symmetry_space_group_name_H-M   'P 1'
_cell_length_a   5.33101493
_cell_length_b   8.73608014
_cell_length_c   9.31299357
_cell_angle_alpha   90.00051361
_cell_angle_beta   102.17596310
_cell_angle_gamma   89.99955748
_symmetry_Int_Tables_number   1
_chemical_formula_structural   LiCr(SiO3)2
_chemical_formula_sum   'Li4 Cr4 Si8 O24'
_cell_volume   423.96944743
_cell_formula_units_Z   4
loop_
 _symmetry_equiv_pos_site_id
 _symmetry_equiv_pos_as_xyz
  1  'x, y, z'
loop_
 _atom_site_type_symbol
 _atom_site_label
 _atom_site_symmetry_multiplicity
 _atom_site_fract_x
 _atom_site_fract_y
 _atom_site_fract_z
 _atom_site_occupancy
  Li  Li0  1  0.010468  0.008969  0.247870  1
  Li  Li1  1  0.489521  0.508967  0.752126  1
  Li  Li2  1  0.989539  0.990952  0.752130  1
  Li  Li3  1  0.510470  0.490948  0.247876  1
  O  O4  1  0.530286  0.267720  0.108356  1
  O  O5  1  0.205964  0.166706  0.866945  1
  O  O6  1  0.294059  0.666714  0.133055  1
  O  O7  1  0.794077  0.833320  0.133067  1
  O  O8  1  0.705901  0.333316  0.866943  1
  O  O9  1  0.730256  0.664712  0.366432  1
  O  O10  1  0.769788  0.164706  0.633571  1
  O  O11  1  0.269732  0.335286  0.633576  1
  O  O12  1  0.230226  0.835294  0.366424  1
  O  O13  1  0.305840  0.990393  0.117448  1
  O  O14  1  0.194184  0.490396  0.882546  1
  O  O15  1  0.694189  0.009636  0.882569  1
  O  O16  1  0.087859  0.728055  0.604718  1
  O  O17  1  0.412153  0.228066  0.395294  1
  O  O18  1  0.912125  0.271934  0.395273  1
  O  O19  1  0.587856  0.771917  0.604712  1
  O  O20  1  0.805800  0.509636  0.117437  1
  O  O21  1  0.969705  0.767726  0.891644  1
  O  O22  1  0.772194  0.494685  0.622854  1
  O  O23  1  0.030273  0.232299  0.108324  1
  O  O24  1  0.272205  0.005321  0.622844  1
  O  O25  1  0.227800  0.505322  0.377145  1
  O  O26  1  0.727808  0.994678  0.377158  1
  O  O27  1  0.469727  0.732306  0.891672  1
  Si  Si28  1  0.223701  0.660041  0.950555  1
  Si  Si29  1  0.796644  0.659625  0.549381  1
  Si  Si30  1  0.703370  0.159636  0.450616  1
  Si  Si31  1  0.203343  0.340361  0.450613  1
  Si  Si32  1  0.296642  0.840353  0.549388  1
  Si  Si33  1  0.276299  0.160032  0.049426  1
  Si  Si34  1  0.776283  0.339973  0.049429  1
  Si  Si35  1  0.723712  0.839977  0.950581  1
  Cr  Cr36  1  0.013587  0.656408  0.250306  1
  Cr  Cr37  1  0.513628  0.843601  0.250317  1
  Cr  Cr38  1  0.986398  0.343603  0.749700  1
  Cr  Cr39  1  0.486385  0.156411  0.749676  1
