# generated using pymatgen
data_LiFe(SiO3)2
_symmetry_space_group_name_H-M   'P 1'
_cell_length_a   5.36169438
_cell_length_b   6.59432643
_cell_length_c   6.59432642
_cell_angle_alpha   83.57781712
_cell_angle_beta   74.75476289
_cell_angle_gamma   74.75476283
_symmetry_Int_Tables_number   1
_chemical_formula_structural   LiFe(SiO3)2
_chemical_formula_sum   'Li2 Fe2 Si4 O12'
_cell_volume   216.80443742
_cell_formula_units_Z   2
loop_
 _symmetry_equiv_pos_site_id
 _symmetry_equiv_pos_as_xyz
  1  'x, y, z'
loop_
 _atom_site_type_symbol
 _atom_site_label
 _atom_site_symmetry_multiplicity
 _atom_site_fract_x
 _atom_site_fract_y
 _atom_site_fract_z
 _atom_site_occupancy
  Li  Li0  1  0.750000  0.256151  0.743849  1
  Li  Li1  1  0.250000  0.743849  0.256151  1
  O  O2  1  0.940241  0.350667  0.358074  1
  O  O3  1  0.440241  0.358074  0.350667  1
  O  O4  1  0.059759  0.649333  0.641926  1
  O  O5  1  0.559759  0.641926  0.649333  1
  O  O6  1  0.150264  0.798561  0.969072  1
  O  O7  1  0.172362  0.111633  0.625175  1
  O  O8  1  0.849736  0.201439  0.030928  1
  O  O9  1  0.650264  0.969072  0.798561  1
  O  O10  1  0.349736  0.030928  0.201439  1
  O  O11  1  0.827638  0.888367  0.374825  1
  O  O12  1  0.672362  0.625175  0.111633  1
  O  O13  1  0.327638  0.374825  0.888367  1
  Si  Si14  1  0.768239  0.793248  0.614608  1
  Si  Si15  1  0.231761  0.206752  0.385392  1
  Si  Si16  1  0.268239  0.614608  0.793248  1
  Si  Si17  1  0.731761  0.385392  0.206752  1
  Fe  Fe18  1  0.750000  0.897911  0.102089  1
  Fe  Fe19  1  0.250000  0.102089  0.897911  1
