# generated using pymatgen
data_LiBi2(PO4)3
_symmetry_space_group_name_H-M   'P 1'
_cell_length_a   9.08675559
_cell_length_b   9.14694352
_cell_length_c   9.08675634
_cell_angle_alpha   62.06312130
_cell_angle_beta   118.23643529
_cell_angle_gamma   117.93688007
_symmetry_Int_Tables_number   1
_chemical_formula_structural   LiBi2(PO4)3
_chemical_formula_sum   'Li2 Bi4 P6 O24'
_cell_volume   557.49460504
_cell_formula_units_Z   2
loop_
 _symmetry_equiv_pos_site_id
 _symmetry_equiv_pos_as_xyz
  1  'x, y, z'
loop_
 _atom_site_type_symbol
 _atom_site_label
 _atom_site_symmetry_multiplicity
 _atom_site_fract_x
 _atom_site_fract_y
 _atom_site_fract_z
 _atom_site_occupancy
  Li  Li0  1  0.113398  0.250000  0.113398  1
  Li  Li1  1  0.886602  0.750000  0.886602  1
  Bi  Bi2  1  0.852190  0.150480  0.647125  1
  Bi  Bi3  1  0.147810  0.849520  0.352875  1
  Bi  Bi4  1  0.352875  0.650480  0.147810  1
  Bi  Bi5  1  0.647125  0.349520  0.852190  1
  P  P6  1  0.042213  0.567297  0.757428  1
  P  P7  1  0.568038  0.750000  0.568038  1
  P  P8  1  0.957787  0.432703  0.242572  1
  P  P9  1  0.431962  0.250000  0.431962  1
  P  P10  1  0.242572  0.067297  0.957787  1
  P  P11  1  0.757428  0.932703  0.042213  1
  O  O12  1  0.233776  0.606671  0.886118  1
  O  O13  1  0.113882  0.106671  0.766224  1
  O  O14  1  0.187626  0.086753  0.084746  1
  O  O15  1  0.983547  0.373123  0.771841  1
  O  O16  1  0.462088  0.306035  0.582567  1
  O  O17  1  0.966972  0.306628  0.430739  1
  O  O18  1  0.771841  0.126877  0.983547  1
  O  O19  1  0.812374  0.913247  0.915254  1
  O  O20  1  0.586721  0.601039  0.749391  1
  O  O21  1  0.033028  0.693372  0.569261  1
  O  O22  1  0.250609  0.101039  0.413279  1
  O  O23  1  0.016453  0.626877  0.228159  1
  O  O24  1  0.582567  0.193965  0.462088  1
  O  O25  1  0.537912  0.693965  0.417433  1
  O  O26  1  0.417433  0.806035  0.537912  1
  O  O27  1  0.084746  0.413247  0.187626  1
  O  O28  1  0.766224  0.393329  0.113882  1
  O  O29  1  0.228159  0.873123  0.016453  1
  O  O30  1  0.569261  0.806628  0.033028  1
  O  O31  1  0.430739  0.193372  0.966972  1
  O  O32  1  0.413279  0.398961  0.250609  1
  O  O33  1  0.886118  0.893329  0.233776  1
  O  O34  1  0.749391  0.898961  0.586721  1
  O  O35  1  0.915254  0.586753  0.812374  1
