# generated using pymatgen
data_FePO4
_symmetry_space_group_name_H-M   'P 1'
_cell_length_a   9.11203685
_cell_length_b   8.51017947
_cell_length_c   15.83100058
_cell_angle_alpha   90.00000000
_cell_angle_beta   89.95873421
_cell_angle_gamma   90.00000000
_symmetry_Int_Tables_number   1
_chemical_formula_structural   FePO4
_chemical_formula_sum   'Fe12 P12 O48'
_cell_volume   1227.61571337
_cell_formula_units_Z   12
loop_
 _symmetry_equiv_pos_site_id
 _symmetry_equiv_pos_as_xyz
  1  'x, y, z'
loop_
 _atom_site_type_symbol
 _atom_site_label
 _atom_site_symmetry_multiplicity
 _atom_site_fract_x
 _atom_site_fract_y
 _atom_site_fract_z
 _atom_site_occupancy
  Fe  Fe0  1  0.061630  0.707331  0.094554  1
  Fe  Fe1  1  0.602172  0.790588  0.922983  1
  Fe  Fe2  1  0.397828  0.209412  0.077017  1
  Fe  Fe3  1  0.561630  0.792669  0.594554  1
  Fe  Fe4  1  0.923455  0.211425  0.261394  1
  Fe  Fe5  1  0.076545  0.788575  0.738606  1
  Fe  Fe6  1  0.423455  0.288575  0.761394  1
  Fe  Fe7  1  0.938370  0.292669  0.905446  1
  Fe  Fe8  1  0.576545  0.711425  0.238606  1
  Fe  Fe9  1  0.102172  0.709412  0.422983  1
  Fe  Fe10  1  0.438370  0.207331  0.405446  1
  Fe  Fe11  1  0.897828  0.290588  0.577017  1
  P  P12  1  0.568917  0.171885  0.590599  1
  P  P13  1  0.916352  0.833969  0.264904  1
  P  P14  1  0.931083  0.671885  0.909401  1
  P  P15  1  0.893604  0.669621  0.580771  1
  P  P16  1  0.083648  0.166031  0.735096  1
  P  P17  1  0.606396  0.169621  0.919229  1
  P  P18  1  0.106396  0.330379  0.419229  1
  P  P19  1  0.431083  0.828115  0.409401  1
  P  P20  1  0.068917  0.328115  0.090599  1
  P  P21  1  0.393604  0.830379  0.080771  1
  P  P22  1  0.583648  0.333969  0.235096  1
  P  P23  1  0.416352  0.666031  0.764904  1
  O  O24  1  0.548214  0.335517  0.330886  1
  O  O25  1  0.656960  0.001600  0.943134  1
  O  O26  1  0.763052  0.762254  0.279847  1
  O  O27  1  0.983210  0.341187  0.351827  1
  O  O28  1  0.081039  0.997080  0.699461  1
  O  O29  1  0.581039  0.502920  0.199461  1
  O  O30  1  0.008029  0.494614  0.109550  1
  O  O31  1  0.967542  0.265944  0.688330  1
  O  O32  1  0.532458  0.765944  0.811670  1
  O  O33  1  0.516790  0.841187  0.148173  1
  O  O34  1  0.477346  0.251609  0.520085  1
  O  O35  1  0.991971  0.505386  0.890450  1
  O  O36  1  0.762763  0.762734  0.617570  1
  O  O37  1  0.343040  0.998400  0.056866  1
  O  O38  1  0.491971  0.994614  0.390449  1
  O  O39  1  0.547899  0.256539  0.998412  1
  O  O40  1  0.951786  0.835517  0.169114  1
  O  O41  1  0.483210  0.158813  0.851827  1
  O  O42  1  0.263052  0.737746  0.779847  1
  O  O43  1  0.558885  0.273028  0.671526  1
  O  O44  1  0.016790  0.658813  0.648173  1
  O  O45  1  0.156960  0.498400  0.443134  1
  O  O46  1  0.236948  0.237746  0.720153  1
  O  O47  1  0.941115  0.773028  0.828474  1
  O  O48  1  0.977346  0.248391  0.020085  1
  O  O49  1  0.768564  0.660021  0.937531  1
  O  O50  1  0.451786  0.664483  0.669114  1
  O  O51  1  0.047899  0.243461  0.498412  1
  O  O52  1  0.737237  0.262734  0.882430  1
  O  O53  1  0.058885  0.226972  0.171526  1
  O  O54  1  0.022654  0.751609  0.979915  1
  O  O55  1  0.418961  0.497080  0.800539  1
  O  O56  1  0.452101  0.743461  0.001588  1
  O  O57  1  0.231436  0.339979  0.062469  1
  O  O58  1  0.467542  0.234056  0.188330  1
  O  O59  1  0.262763  0.737266  0.117570  1
  O  O60  1  0.736948  0.262254  0.220153  1
  O  O61  1  0.522654  0.748391  0.479915  1
  O  O62  1  0.032458  0.734056  0.311670  1
  O  O63  1  0.508029  0.005386  0.609550  1
  O  O64  1  0.268564  0.839979  0.437531  1
  O  O65  1  0.048214  0.164483  0.830886  1
  O  O66  1  0.237237  0.237266  0.382430  1
  O  O67  1  0.441115  0.726972  0.328474  1
  O  O68  1  0.918961  0.002920  0.300539  1
  O  O69  1  0.843040  0.501600  0.556866  1
  O  O70  1  0.952101  0.756539  0.501588  1
  O  O71  1  0.731436  0.160021  0.562469  1
