# generated using pymatgen
data_Li14Co9(P2O7)8
_symmetry_space_group_name_H-M   'P 1'
_cell_length_a   10.74779624
_cell_length_b   9.62586128
_cell_length_c   12.72434142
_cell_angle_alpha   68.82039130
_cell_angle_beta   116.02578059
_cell_angle_gamma   107.29987969
_symmetry_Int_Tables_number   1
_chemical_formula_structural   Li14Co9(P2O7)8
_chemical_formula_sum   'Li14 Co9 P16 O56'
_cell_volume   1087.77677949
_cell_formula_units_Z   1
loop_
 _symmetry_equiv_pos_site_id
 _symmetry_equiv_pos_as_xyz
  1  'x, y, z'
loop_
 _atom_site_type_symbol
 _atom_site_label
 _atom_site_symmetry_multiplicity
 _atom_site_fract_x
 _atom_site_fract_y
 _atom_site_fract_z
 _atom_site_occupancy
  Li  Li0  1  0.137339  0.928050  0.597441  1
  Li  Li1  1  0.126045  0.434026  0.084700  1
  Li  Li2  1  0.626176  0.453868  0.590839  1
  Li  Li3  1  0.373824  0.546132  0.409161  1
  Li  Li4  1  0.021288  0.643996  0.396880  1
  Li  Li5  1  0.862661  0.071950  0.402559  1
  Li  Li6  1  0.978712  0.356004  0.603120  1
  Li  Li7  1  0.497222  0.867400  0.316203  1
  Li  Li8  1  0.514158  0.632938  0.173531  1
  Li  Li9  1  0.621910  0.955426  0.089457  1
  Li  Li10  1  0.485842  0.367062  0.826469  1
  Li  Li11  1  0.378090  0.044574  0.910543  1
  Li  Li12  1  0.502778  0.132600  0.683797  1
  Li  Li13  1  0.873955  0.565974  0.915300  1
  Co  Co14  1  0.744962  0.435377  0.304200  1
  Co  Co15  1  0.264262  0.071531  0.201932  1
  Co  Co16  1  0.217648  0.200486  0.416895  1
  Co  Co17  1  0.735738  0.928469  0.798068  1
  Co  Co18  1  0.255038  0.564623  0.695800  1
  Co  Co19  1  0.782352  0.799514  0.583105  1
  Co  Co20  1  0.780133  0.300909  0.078590  1
  Co  Co21  1  0.000000  0.000000  0.000000  1
  Co  Co22  1  0.219867  0.699091  0.921410  1
  P  P23  1  0.700902  0.638321  0.014979  1
  P  P24  1  0.208131  0.231393  0.659702  1
  P  P25  1  0.538911  0.196141  0.132759  1
  P  P26  1  0.052823  0.968562  0.776985  1
  P  P27  1  0.798275  0.263793  0.843927  1
  P  P28  1  0.299098  0.361679  0.985021  1
  P  P29  1  0.050175  0.469029  0.273158  1
  P  P30  1  0.949825  0.530971  0.726842  1
  P  P31  1  0.947177  0.031438  0.223015  1
  P  P32  1  0.461089  0.803859  0.867241  1
  P  P33  1  0.300562  0.864765  0.485466  1
  P  P34  1  0.699438  0.135235  0.514534  1
  P  P35  1  0.201725  0.736207  0.156073  1
  P  P36  1  0.464356  0.308442  0.367888  1
  P  P37  1  0.535644  0.691558  0.632112  1
  P  P38  1  0.791869  0.768607  0.340298  1
  O  O39  1  0.539863  0.158192  0.024743  1
  O  O40  1  0.092099  0.652773  0.225938  1
  O  O41  1  0.176637  0.901046  0.105233  1
  O  O42  1  0.205050  0.213030  0.022179  1
  O  O43  1  0.907901  0.347227  0.774062  1
  O  O44  1  0.716621  0.007461  0.479440  1
  O  O45  1  0.687158  0.754916  0.709086  1
  O  O46  1  0.954695  0.455110  0.336803  1
  O  O47  1  0.276390  0.492284  0.014508  1
  O  O48  1  0.847400  0.341196  0.944993  1
  O  O49  1  0.458339  0.562539  0.704790  1
  O  O50  1  0.043629  0.050809  0.156863  1
  O  O51  1  0.542044  0.165795  0.421783  1
  O  O52  1  0.540547  0.662135  0.919652  1
  O  O53  1  0.985828  0.405574  0.162943  1
  O  O54  1  0.302814  0.399019  0.860061  1
  O  O55  1  0.283379  0.992539  0.520560  1
  O  O56  1  0.312842  0.245084  0.290914  1
  O  O57  1  0.794950  0.786970  0.977821  1
  O  O58  1  0.354953  0.203087  0.752629  1
  O  O59  1  0.180042  0.392693  0.609766  1
  O  O60  1  0.808738  0.582490  0.640002  1
  O  O61  1  0.956371  0.949191  0.843137  1
  O  O62  1  0.308298  0.743719  0.790965  1
  O  O63  1  0.460137  0.841808  0.975257  1
  O  O64  1  0.723610  0.507716  0.985492  1
  O  O65  1  0.200766  0.718122  0.515678  1
  O  O66  1  0.459453  0.337865  0.080348  1
  O  O67  1  0.349220  0.712757  0.247493  1
  O  O68  1  0.983170  0.904386  0.667580  1
  O  O69  1  0.045305  0.544890  0.663197  1
  O  O70  1  0.539787  0.653260  0.525967  1
  O  O71  1  0.193456  0.914965  0.862184  1
  O  O72  1  0.093481  0.150897  0.728314  1
  O  O73  1  0.906519  0.849103  0.271686  1
  O  O74  1  0.536855  0.934374  0.793678  1
  O  O75  1  0.191262  0.417510  0.359998  1
  O  O76  1  0.823363  0.098954  0.894767  1
  O  O77  1  0.819958  0.607307  0.390234  1
  O  O78  1  0.152600  0.658804  0.055007  1
  O  O79  1  0.460213  0.346740  0.474033  1
  O  O80  1  0.541661  0.437461  0.295210  1
  O  O81  1  0.841986  0.849279  0.439014  1
  O  O82  1  0.650780  0.287243  0.752507  1
  O  O83  1  0.697186  0.600981  0.139939  1
  O  O84  1  0.699212  0.094667  0.641348  1
  O  O85  1  0.014173  0.594426  0.837057  1
  O  O86  1  0.158014  0.150721  0.560986  1
  O  O87  1  0.300788  0.905333  0.358652  1
  O  O88  1  0.806544  0.085035  0.137816  1
  O  O89  1  0.016830  0.095614  0.332420  1
  O  O90  1  0.691702  0.256281  0.209035  1
  O  O91  1  0.463145  0.065626  0.206322  1
  O  O92  1  0.645047  0.796913  0.247371  1
  O  O93  1  0.457956  0.834205  0.578217  1
  O  O94  1  0.799234  0.281878  0.484322  1
