# generated using pymatgen
data_LiMnPO4
_symmetry_space_group_name_H-M   'P 1'
_cell_length_a   10.09388807
_cell_length_b   10.23841354
_cell_length_c   16.77473889
_cell_angle_alpha   82.09930316
_cell_angle_beta   90.00000000
_cell_angle_gamma   60.46586523
_symmetry_Int_Tables_number   1
_chemical_formula_structural   LiMnPO4
_chemical_formula_sum   'Li16 Mn16 P16 O64'
_cell_volume   1489.39058356
_cell_formula_units_Z   16
loop_
 _symmetry_equiv_pos_site_id
 _symmetry_equiv_pos_as_xyz
  1  'x, y, z'
loop_
 _atom_site_type_symbol
 _atom_site_label
 _atom_site_symmetry_multiplicity
 _atom_site_fract_x
 _atom_site_fract_y
 _atom_site_fract_z
 _atom_site_occupancy
  Li  Li0  1  0.815123  0.986915  0.996896  1
  Li  Li1  1  0.197963  0.986915  0.496896  1
  Li  Li2  1  0.574903  0.720870  0.747532  1
  Li  Li3  1  0.073365  0.669364  0.748969  1
  Li  Li4  1  0.315125  0.544132  0.998281  1
  Li  Li5  1  0.704227  0.720870  0.247532  1
  Li  Li6  1  0.813068  0.486664  0.996240  1
  Li  Li7  1  0.257270  0.669364  0.248969  1
  Li  Li8  1  0.140743  0.544132  0.498281  1
  Li  Li9  1  0.700267  0.486664  0.496240  1
  Li  Li10  1  0.567448  0.227440  0.747910  1
  Li  Li11  1  0.079027  0.163457  0.746585  1
  Li  Li12  1  0.314976  0.044908  0.997002  1
  Li  Li13  1  0.205112  0.227440  0.247910  1
  Li  Li14  1  0.757516  0.163457  0.246585  1
  Li  Li15  1  0.640117  0.044908  0.497002  1
  Mn  Mn16  1  0.267535  0.846981  0.871766  1
  Mn  Mn17  1  0.769483  0.786399  0.872212  1
  Mn  Mn18  1  0.885484  0.846981  0.371766  1
  Mn  Mn19  1  0.444118  0.786399  0.372212  1
  Mn  Mn20  1  0.326174  0.669848  0.621233  1
  Mn  Mn21  1  0.880356  0.608775  0.621621  1
  Mn  Mn22  1  0.003978  0.669848  0.121233  1
  Mn  Mn23  1  0.510869  0.608775  0.121621  1
  Mn  Mn24  1  0.270565  0.346170  0.872516  1
  Mn  Mn25  1  0.767885  0.287600  0.870434  1
  Mn  Mn26  1  0.383264  0.346170  0.372516  1
  Mn  Mn27  1  0.944515  0.287600  0.370434  1
  Mn  Mn28  1  0.826286  0.164803  0.620292  1
  Mn  Mn29  1  0.381186  0.114091  0.620971  1
  Mn  Mn30  1  0.008912  0.164803  0.120292  1
  Mn  Mn31  1  0.504724  0.114091  0.120971  1
  O  O32  1  0.069993  0.976925  0.794918  1
  O  O33  1  0.568806  0.894711  0.797401  1
  O  O34  1  0.748154  0.835636  0.988484  1
  O  O35  1  0.553386  0.936784  0.569080  1
  O  O36  1  0.934693  0.823818  0.816641  1
  O  O37  1  0.953082  0.976925  0.294918  1
  O  O38  1  0.243432  0.767001  0.986916  1
  O  O39  1  0.125269  0.865695  0.570380  1
  O  O40  1  0.536483  0.894711  0.297401  1
  O  O41  1  0.416209  0.835636  0.488484  1
  O  O42  1  0.509830  0.936784  0.069080  1
  O  O43  1  0.477380  0.750272  0.637831  1
  O  O44  1  0.980036  0.741869  0.636375  1
  O  O45  1  0.241489  0.823818  0.316641  1
  O  O46  1  0.446106  0.669935  0.823495  1
  O  O47  1  0.989567  0.767001  0.486916  1
  O  O48  1  0.009037  0.865695  0.070380  1
  O  O49  1  0.693106  0.663741  0.542693  1
  O  O50  1  0.846584  0.552635  0.885871  1
  O  O51  1  0.296756  0.591763  0.737427  1
  O  O52  1  0.802808  0.587986  0.735163  1
  O  O53  1  0.772348  0.750272  0.137831  1
  O  O54  1  0.278095  0.741869  0.136375  1
  O  O55  1  0.883958  0.669935  0.323495  1
  O  O56  1  0.345105  0.499589  0.886961  1
  O  O57  1  0.071634  0.476703  0.796595  1
  O  O58  1  0.643153  0.663741  0.042693  1
  O  O59  1  0.339534  0.512782  0.547864  1
  O  O60  1  0.600780  0.552635  0.385871  1
  O  O61  1  0.111480  0.591763  0.237427  1
  O  O62  1  0.609206  0.587986  0.235163  1
  O  O63  1  0.566110  0.397883  0.795853  1
  O  O64  1  0.745404  0.336080  0.986957  1
  O  O65  1  0.155306  0.499589  0.386961  1
  O  O66  1  0.054566  0.433025  0.570874  1
  O  O67  1  0.245404  0.268138  0.988243  1
  O  O68  1  0.451662  0.476703  0.296595  1
  O  O69  1  0.940185  0.318809  0.817683  1
  O  O70  1  0.628271  0.364494  0.568850  1
  O  O71  1  0.147683  0.512782  0.047864  1
  O  O72  1  0.036007  0.397883  0.295853  1
  O  O73  1  0.918517  0.336080  0.486957  1
  O  O74  1  0.512409  0.433025  0.070874  1
  O  O75  1  0.477079  0.250650  0.637791  1
  O  O76  1  0.978793  0.242678  0.635691  1
  O  O77  1  0.486459  0.268138  0.488243  1
  O  O78  1  0.445839  0.168449  0.823310  1
  O  O79  1  0.741006  0.318809  0.317683  1
  O  O80  1  0.007235  0.364494  0.068850  1
  O  O81  1  0.195748  0.162252  0.541990  1
  O  O82  1  0.850188  0.052801  0.887681  1
  O  O83  1  0.795572  0.097127  0.738072  1
  O  O84  1  0.304137  0.085472  0.734377  1
  O  O85  1  0.272271  0.250650  0.137791  1
  O  O86  1  0.778530  0.242678  0.135691  1
  O  O87  1  0.385712  0.168449  0.323310  1
  O  O88  1  0.341567  0.001228  0.885178  1
  O  O89  1  0.642000  0.162252  0.041990  1
  O  O90  1  0.837330  0.007132  0.549229  1
  O  O91  1  0.097011  0.052801  0.387681  1
  O  O92  1  0.107301  0.097127  0.238072  1
  O  O93  1  0.610391  0.085472  0.234377  1
  O  O94  1  0.657205  0.001228  0.385178  1
  O  O95  1  0.155537  0.007132  0.049229  1
  P  P96  1  0.913756  0.985804  0.809090  1
  P  P97  1  0.100440  0.985804  0.309090  1
  P  P98  1  0.982545  0.847256  0.560583  1
  P  P99  1  0.536311  0.797024  0.559107  1
  P  P100  1  0.170200  0.847256  0.060583  1
  P  P101  1  0.666665  0.797024  0.059107  1
  P  P102  1  0.415159  0.539519  0.811018  1
  P  P103  1  0.916439  0.481915  0.809091  1
  P  P104  1  0.045322  0.539519  0.311018  1
  P  P105  1  0.601646  0.481915  0.309091  1
  P  P106  1  0.482225  0.351231  0.560336  1
  P  P107  1  0.038060  0.293770  0.558504  1
  P  P108  1  0.166545  0.351231  0.060336  1
  P  P109  1  0.668170  0.293770  0.058504  1
  P  P110  1  0.416563  0.037116  0.810433  1
  P  P111  1  0.546321  0.037116  0.310433  1
