# generated using pymatgen
data_LiV(GeO3)2
_symmetry_space_group_name_H-M   'P 1'
_cell_length_a   5.44622044
_cell_length_b   8.98710507
_cell_length_c   10.07148770
_cell_angle_alpha   90.00000000
_cell_angle_beta   109.44169981
_cell_angle_gamma   90.00000000
_symmetry_Int_Tables_number   1
_chemical_formula_structural   LiV(GeO3)2
_chemical_formula_sum   'Li4 V4 Ge8 O24'
_cell_volume   464.84851558
_cell_formula_units_Z   4
loop_
 _symmetry_equiv_pos_site_id
 _symmetry_equiv_pos_as_xyz
  1  'x, y, z'
loop_
 _atom_site_type_symbol
 _atom_site_label
 _atom_site_symmetry_multiplicity
 _atom_site_fract_x
 _atom_site_fract_y
 _atom_site_fract_z
 _atom_site_occupancy
  Li  Li0  1  0.219206  0.511837  0.756612  1
  Li  Li1  1  0.719206  0.988163  0.756612  1
  Li  Li2  1  0.780794  0.488163  0.243388  1
  Li  Li3  1  0.280794  0.011837  0.243388  1
  V  V4  1  0.284395  0.653687  0.248969  1
  V  V5  1  0.215605  0.153687  0.751031  1
  V  V6  1  0.715605  0.346313  0.751031  1
  V  V7  1  0.784395  0.846313  0.248969  1
  Ge  Ge8  1  0.222282  0.341776  0.452598  1
  Ge  Ge9  1  0.231001  0.339238  0.054300  1
  Ge  Ge10  1  0.768999  0.660762  0.945700  1
  Ge  Ge11  1  0.731001  0.160762  0.054300  1
  Ge  Ge12  1  0.277718  0.841776  0.547402  1
  Ge  Ge13  1  0.268999  0.839238  0.945700  1
  Ge  Ge14  1  0.777718  0.658224  0.547402  1
  Ge  Ge15  1  0.722282  0.158224  0.452598  1
  O  O16  1  0.172773  0.833443  0.359975  1
  O  O17  1  0.045697  0.686397  0.889209  1
  O  O18  1  0.209516  0.519430  0.383374  1
  O  O19  1  0.545697  0.813603  0.889209  1
  O  O20  1  0.672773  0.666557  0.359975  1
  O  O21  1  0.790484  0.480570  0.616626  1
  O  O22  1  0.290484  0.019430  0.616626  1
  O  O23  1  0.604539  0.170846  0.864958  1
  O  O24  1  0.709516  0.980570  0.383374  1
  O  O25  1  0.827227  0.166557  0.640025  1
  O  O26  1  0.104539  0.329154  0.864958  1
  O  O27  1  0.385619  0.207251  0.382812  1
  O  O28  1  0.395461  0.829154  0.135042  1
  O  O29  1  0.885619  0.292749  0.382812  1
  O  O30  1  0.114381  0.707251  0.617188  1
  O  O31  1  0.892137  1.000971  0.131969  1
  O  O32  1  0.614381  0.792749  0.617188  1
  O  O33  1  0.454303  0.186397  0.110791  1
  O  O34  1  0.895461  0.670846  0.135042  1
  O  O35  1  0.327227  0.333443  0.640025  1
  O  O36  1  0.107863  -0.000971  0.868031  1
  O  O37  1  0.607863  0.500971  0.868031  1
  O  O38  1  0.392137  0.499029  0.131969  1
  O  O39  1  0.954303  0.313603  0.110791  1
