# generated using pymatgen
data_CrF4
_symmetry_space_group_name_H-M   'P 1'
_cell_length_a   7.36946216
_cell_length_b   9.10630540
_cell_length_c   9.10630598
_cell_angle_alpha   67.43261177
_cell_angle_beta   79.48571899
_cell_angle_gamma   79.48571392
_symmetry_Int_Tables_number   1
_chemical_formula_structural   CrF4
_chemical_formula_sum   'Cr8 F32'
_cell_volume   550.57043477
_cell_formula_units_Z   8
loop_
 _symmetry_equiv_pos_site_id
 _symmetry_equiv_pos_as_xyz
  1  'x, y, z'
loop_
 _atom_site_type_symbol
 _atom_site_label
 _atom_site_symmetry_multiplicity
 _atom_site_fract_x
 _atom_site_fract_y
 _atom_site_fract_z
 _atom_site_occupancy
  Cr  Cr0  1  0.497917  0.742908  0.252618  1
  Cr  Cr1  1  0.894557  0.182265  0.185737  1
  Cr  Cr2  1  0.605443  0.814263  0.817735  1
  Cr  Cr3  1  0.394557  0.185737  0.182265  1
  Cr  Cr4  1  0.105443  0.817735  0.814263  1
  Cr  Cr5  1  0.997917  0.252618  0.742908  1
  Cr  Cr6  1  0.502083  0.257092  0.747382  1
  Cr  Cr7  1  0.002083  0.747382  0.257092  1
  F  F8  1  0.999433  0.756501  0.040430  1
  F  F9  1  0.903659  0.975088  0.161906  1
  F  F10  1  0.596341  0.838094  0.024912  1
  F  F11  1  0.648157  0.238855  0.117466  1
  F  F12  1  0.851843  0.882534  0.761145  1
  F  F13  1  0.896989  0.376908  0.175194  1
  F  F14  1  0.908678  0.455001  0.681824  1
  F  F15  1  0.351843  0.761145  0.882534  1
  F  F16  1  0.091322  0.544999  0.318176  1
  F  F17  1  0.499433  0.040430  0.756501  1
  F  F18  1  0.193181  0.904987  0.613585  1
  F  F19  1  0.750000  0.188435  0.811565  1
  F  F20  1  0.987633  0.773636  0.438931  1
  F  F21  1  0.012367  0.226364  0.561069  1
  F  F22  1  0.806819  0.095012  0.386415  1
  F  F23  1  0.250000  0.308212  0.691788  1
  F  F24  1  0.250000  0.811565  0.188435  1
  F  F25  1  0.603011  0.824806  0.623092  1
  F  F26  1  0.500567  0.959570  0.243499  1
  F  F27  1  0.096341  0.024912  0.838094  1
  F  F28  1  0.403659  0.161906  0.975088  1
  F  F29  1  0.512367  0.561069  0.226364  1
  F  F30  1  0.396989  0.175194  0.376908  1
  F  F31  1  0.693181  0.613585  0.904987  1
  F  F32  1  0.103011  0.623092  0.824806  1
  F  F33  1  0.750000  0.691788  0.308212  1
  F  F34  1  0.148157  0.117466  0.238855  1
  F  F35  1  0.000567  0.243499  0.959570  1
  F  F36  1  0.487633  0.438931  0.773636  1
  F  F37  1  0.408678  0.681824  0.455001  1
  F  F38  1  0.306819  0.386415  0.095012  1
  F  F39  1  0.591322  0.318176  0.544999  1
