# generated using pymatgen
data_LiCu2P5O16
_symmetry_space_group_name_H-M   'P 1'
_cell_length_a   18.54339661
_cell_length_b   6.71882446
_cell_length_c   4.96534070
_cell_angle_alpha   90.00000000
_cell_angle_beta   89.53751804
_cell_angle_gamma   90.00000000
_symmetry_Int_Tables_number   1
_chemical_formula_structural   LiCu2P5O16
_chemical_formula_sum   'Li2 Cu4 P10 O32'
_cell_volume   618.61078406
_cell_formula_units_Z   2
loop_
 _symmetry_equiv_pos_site_id
 _symmetry_equiv_pos_as_xyz
  1  'x, y, z'
loop_
 _atom_site_type_symbol
 _atom_site_label
 _atom_site_symmetry_multiplicity
 _atom_site_fract_x
 _atom_site_fract_y
 _atom_site_fract_z
 _atom_site_occupancy
  Li  Li0  1  0.471979  0.375828  0.735622  1
  Li  Li1  1  0.971979  0.624172  0.735622  1
  Cu  Cu2  1  0.408331  0.821540  0.744494  1
  Cu  Cu3  1  0.908331  0.178460  0.744494  1
  Cu  Cu4  1  0.092295  0.820736  0.254500  1
  Cu  Cu5  1  0.592295  0.179264  0.254500  1
  P  P6  1  0.130414  0.537004  0.734497  1
  P  P7  1  0.420790  0.124395  0.232627  1
  P  P8  1  0.630414  0.462996  0.734497  1
  P  P9  1  0.749988  0.246527  0.005081  1
  P  P10  1  0.077651  0.126703  0.770959  1
  P  P11  1  0.577651  0.873297  0.770959  1
  P  P12  1  0.869416  0.466771  0.260463  1
  P  P13  1  0.920790  0.875605  0.232627  1
  P  P14  1  0.249988  0.753473  0.005081  1
  P  P15  1  0.369416  0.533229  0.260463  1
  O  O16  1  0.618329  0.433363  0.436024  1
  O  O17  1  0.711095  0.402766  0.810954  1
  O  O18  1  0.567245  0.935091  0.064740  1
  O  O19  1  0.574337  0.365808  0.917677  1
  O  O20  1  0.510403  0.773322  0.652192  1
  O  O21  1  0.886915  0.044782  0.392426  1
  O  O22  1  0.305041  0.867195  0.843707  1
  O  O23  1  0.195546  0.876402  0.156976  1
  O  O24  1  0.389169  0.558371  0.555741  1
  O  O25  1  0.386915  0.955218  0.392426  1
  O  O26  1  0.612854  0.034011  0.597700  1
  O  O27  1  0.931835  0.918658  0.930875  1
  O  O28  1  0.288710  0.606294  0.216802  1
  O  O29  1  0.986553  0.776559  0.365555  1
  O  O30  1  0.788710  0.393706  0.216802  1
  O  O31  1  0.858742  0.700846  0.226996  1
  O  O32  1  0.421418  0.614464  0.051040  1
  O  O33  1  0.067245  0.064909  0.064740  1
  O  O34  1  0.431835  0.081342  0.930875  1
  O  O35  1  0.921418  0.385536  0.051040  1
  O  O36  1  0.112854  0.965989  0.597700  1
  O  O37  1  0.010403  0.226678  0.652192  1
  O  O38  1  0.358742  0.299154  0.226996  1
  O  O39  1  0.074337  0.634192  0.917677  1
  O  O40  1  0.118329  0.566637  0.436024  1
  O  O41  1  0.695546  0.123598  0.156976  1
  O  O42  1  0.486553  0.223441  0.365555  1
  O  O43  1  0.637527  0.695206  0.783824  1
  O  O44  1  0.137527  0.304794  0.783824  1
  O  O45  1  0.211095  0.597234  0.810954  1
  O  O46  1  0.889169  0.441629  0.555741  1
  O  O47  1  0.805041  0.132805  0.843707  1
