# generated using pymatgen
data_SbP2O7
_symmetry_space_group_name_H-M   'P 1'
_cell_length_a   8.22587002
_cell_length_b   8.31073118
_cell_length_c   16.33308315
_cell_angle_alpha   90.00000000
_cell_angle_beta   90.00000000
_cell_angle_gamma   90.17792783
_symmetry_Int_Tables_number   1
_chemical_formula_structural   SbP2O7
_chemical_formula_sum   'Sb8 P16 O56'
_cell_volume   1116.57308855
_cell_formula_units_Z   8
loop_
 _symmetry_equiv_pos_site_id
 _symmetry_equiv_pos_as_xyz
  1  'x, y, z'
loop_
 _atom_site_type_symbol
 _atom_site_label
 _atom_site_symmetry_multiplicity
 _atom_site_fract_x
 _atom_site_fract_y
 _atom_site_fract_z
 _atom_site_occupancy
  Sb  Sb0  1  0.845657  0.528257  0.873194  1
  Sb  Sb1  1  0.154343  0.971743  0.373194  1
  Sb  Sb2  1  0.154343  0.471743  0.126806  1
  Sb  Sb3  1  0.845657  0.028257  0.626806  1
  Sb  Sb4  1  0.631356  0.484423  0.366750  1
  Sb  Sb5  1  0.368644  0.015577  0.866750  1
  Sb  Sb6  1  0.368644  0.515577  0.633250  1
  Sb  Sb7  1  0.631356  0.984423  0.133250  1
  P  P8  1  0.966491  0.403445  0.678117  1
  P  P9  1  0.033509  0.096555  0.178117  1
  P  P10  1  0.033509  0.596555  0.321883  1
  P  P11  1  0.966491  0.903445  0.821883  1
  P  P12  1  0.459311  0.111536  0.667022  1
  P  P13  1  0.540689  0.388464  0.167022  1
  P  P14  1  0.540689  0.888464  0.332978  1
  P  P15  1  0.459311  0.611536  0.832978  1
  P  P16  1  0.746885  0.638330  0.589366  1
  P  P17  1  0.253115  0.861670  0.089366  1
  P  P18  1  0.253115  0.361670  0.410634  1
  P  P19  1  0.746885  0.138330  0.910634  1
  P  P20  1  0.780790  0.072671  0.428023  1
  P  P21  1  0.219210  0.427329  0.928023  1
  P  P22  1  0.219210  0.927329  0.571977  1
  P  P23  1  0.780790  0.572671  0.071977  1
  O  O24  1  0.928890  0.957725  0.415749  1
  O  O25  1  0.071110  0.542275  0.915749  1
  O  O26  1  0.071110  0.042275  0.584251  1
  O  O27  1  0.928890  0.457725  0.084251  1
  O  O28  1  0.773204  0.216766  0.374035  1
  O  O29  1  0.226796  0.283234  0.874035  1
  O  O30  1  0.226796  0.783234  0.625965  1
  O  O31  1  0.773204  0.716766  0.125965  1
  O  O32  1  0.628827  0.952001  0.415414  1
  O  O33  1  0.371173  0.547999  0.915414  1
  O  O34  1  0.371173  0.047999  0.584586  1
  O  O35  1  0.628827  0.452001  0.084586  1
  O  O36  1  0.621682  0.015075  0.669981  1
  O  O37  1  0.378318  0.484925  0.169981  1
  O  O38  1  0.378318  0.984925  0.330019  1
  O  O39  1  0.621682  0.515075  0.830019  1
  O  O40  1  0.766533  0.118617  0.520514  1
  O  O41  1  0.233467  0.381383  0.020514  1
  O  O42  1  0.233467  0.881383  0.479486  1
  O  O43  1  0.766533  0.618617  0.979486  1
  O  O44  1  0.623321  0.627942  0.658258  1
  O  O45  1  0.376679  0.872058  0.158258  1
  O  O46  1  0.376679  0.372058  0.341742  1
  O  O47  1  0.623321  0.127942  0.841742  1
  O  O48  1  0.510913  0.709570  0.343944  1
  O  O49  1  0.489087  0.790430  0.843944  1
  O  O50  1  0.489087  0.290430  0.656056  1
  O  O51  1  0.510913  0.209570  0.156056  1
  O  O52  1  0.856785  0.253495  0.665911  1
  O  O53  1  0.143215  0.246505  0.165911  1
  O  O54  1  0.143215  0.746505  0.334089  1
  O  O55  1  0.856785  0.753495  0.834089  1
  O  O56  1  0.855701  0.625337  0.337969  1
  O  O57  1  0.144299  0.874663  0.837969  1
  O  O58  1  0.144299  0.374663  0.662031  1
  O  O59  1  0.855701  0.125337  0.162031  1
  O  O60  1  0.647008  0.439499  0.238613  1
  O  O61  1  0.352992  0.060501  0.738613  1
  O  O62  1  0.352992  0.560501  0.761387  1
  O  O63  1  0.647008  0.939499  0.261387  1
  O  O64  1  0.829262  0.809449  0.582553  1
  O  O65  1  0.170738  0.690551  0.082553  1
  O  O66  1  0.170738  0.190551  0.417447  1
  O  O67  1  0.829262  0.309449  0.917447  1
  O  O68  1  0.907797  0.534202  0.614518  1
  O  O69  1  0.092203  0.965798  0.114518  1
  O  O70  1  0.092203  0.465798  0.385482  1
  O  O71  1  0.907797  0.034202  0.885482  1
  O  O72  1  0.690230  0.583099  0.506975  1
  O  O73  1  0.309770  0.916901  0.006975  1
  O  O74  1  0.309770  0.416901  0.493025  1
  O  O75  1  0.690230  0.083099  0.993025  1
  O  O76  1  0.936088  0.465311  0.765581  1
  O  O77  1  0.063912  0.034689  0.265581  1
  O  O78  1  0.063912  0.534689  0.234419  1
  O  O79  1  0.936088  0.965311  0.734419  1
