# generated using pymatgen
data_Li3Mn3(PO4)4
_symmetry_space_group_name_H-M   'P 1'
_cell_length_a   13.34387318
_cell_length_b   8.12946225
_cell_length_c   8.85229393
_cell_angle_alpha   90.98754179
_cell_angle_beta   83.71745181
_cell_angle_gamma   91.24142997
_symmetry_Int_Tables_number   1
_chemical_formula_structural   Li3Mn3(PO4)4
_chemical_formula_sum   'Li9 Mn9 P12 O48'
_cell_volume   954.18574139
_cell_formula_units_Z   3
loop_
 _symmetry_equiv_pos_site_id
 _symmetry_equiv_pos_as_xyz
  1  'x, y, z'
loop_
 _atom_site_type_symbol
 _atom_site_label
 _atom_site_symmetry_multiplicity
 _atom_site_fract_x
 _atom_site_fract_y
 _atom_site_fract_z
 _atom_site_occupancy
  Li  Li0  1  0.161249  0.635527  0.744071  1
  Li  Li1  1  0.157732  0.860427  0.229933  1
  Li  Li2  1  0.503642  0.365366  0.591658  1
  Li  Li3  1  0.828458  0.867115  0.574738  1
  Li  Li4  1  0.840621  0.131784  0.760292  1
  Li  Li5  1  0.508288  0.139387  0.101860  1
  Li  Li6  1  0.827117  0.641939  0.063302  1
  Li  Li7  1  0.175317  0.366409  0.924501  1
  Li  Li8  1  0.490851  0.633477  0.407579  1
  Mn  Mn9  1  0.167807  0.993845  0.843119  1
  Mn  Mn10  1  0.837085  0.506526  0.675816  1
  Mn  Mn11  1  0.498981  0.490902  0.006000  1
  Mn  Mn12  1  0.498520  0.859443  0.895080  1
  Mn  Mn13  1  0.495977  0.003090  0.490013  1
  Mn  Mn14  1  0.830951  0.363913  0.269680  1
  Mn  Mn15  1  0.832975  0.992293  0.160860  1
  Mn  Mn16  1  0.168043  0.140250  0.437895  1
  Mn  Mn17  1  0.167966  0.509229  0.327727  1
  P  P18  1  0.053676  0.308849  0.649953  1
  P  P19  1  0.275456  0.809727  0.524293  1
  P  P20  1  0.720682  0.189517  0.485258  1
  P  P21  1  0.607811  0.802704  0.188221  1
  P  P22  1  0.059952  0.198915  0.144175  1
  P  P23  1  0.612885  0.691783  0.682187  1
  P  P24  1  0.944847  0.811968  0.852110  1
  P  P25  1  0.392692  0.302503  0.313020  1
  P  P26  1  0.942129  0.695979  0.358960  1
  P  P27  1  0.274618  0.696640  0.021501  1
  P  P28  1  0.724637  0.300681  0.975857  1
  P  P29  1  0.389598  0.187815  0.808757  1
  O  O30  1  0.435809  0.065887  0.915597  1
  O  O31  1  0.102148  0.130808  0.648008  1
  O  O32  1  0.942911  0.204765  0.179350  1
  O  O33  1  0.723364  0.798543  0.154746  1
  O  O34  1  0.234186  0.575671  0.912065  1
  O  O35  1  0.100997  0.076503  0.251870  1
  O  O36  1  0.230202  0.933129  0.417445  1
  O  O37  1  0.899582  0.633128  0.845257  1
  O  O38  1  0.438803  0.360213  0.827491  1
  O  O39  1  0.566148  0.574209  0.578307  1
  O  O40  1  0.563792  0.923594  0.081368  1
  O  O41  1  0.254028  0.643615  0.193408  1
  O  O42  1  0.605916  0.195541  0.506917  1
  O  O43  1  0.062542  0.810486  0.825727  1
  O  O44  1  0.727550  0.699693  0.662009  1
  O  O45  1  0.919142  0.858884  0.026808  1
  O  O46  1  0.229197  0.869789  0.019232  1
  O  O47  1  0.774459  0.130990  0.984192  1
  O  O48  1  0.938846  0.301793  0.669553  1
  O  O49  1  0.082535  0.139288  0.975859  1
  O  O50  1  0.110335  0.372148  0.156107  1
  O  O51  1  0.609546  0.297064  0.009805  1
  O  O52  1  0.432429  0.423959  0.422398  1
  O  O53  1  0.100702  0.425360  0.754017  1
  O  O54  1  0.392855  0.705445  0.991608  1
  O  O55  1  0.273420  0.185812  0.845512  1
  O  O56  1  0.772129  0.369279  0.487303  1
  O  O57  1  0.413818  0.354610  0.141142  1
  O  O58  1  0.583211  0.864036  0.357448  1
  O  O59  1  0.901137  0.926877  0.746416  1
  O  O60  1  0.750541  0.366364  0.809757  1
  O  O61  1  0.224717  0.638086  0.505973  1
  O  O62  1  0.576169  0.654744  0.860735  1
  O  O63  1  0.766421  0.073441  0.586096  1
  O  O64  1  0.056574  0.700305  0.319699  1
  O  O65  1  0.090448  0.346012  0.471401  1
  O  O66  1  0.890528  0.862547  0.346012  1
  O  O67  1  0.770688  0.424110  0.086727  1
  O  O68  1  0.415081  0.136040  0.638619  1
  O  O69  1  0.274647  0.291981  0.341926  1
  O  O70  1  0.251163  0.862688  0.693999  1
  O  O71  1  0.391197  0.808245  0.487047  1
  O  O72  1  0.563207  0.869468  0.683063  1
  O  O73  1  0.896368  0.569132  0.247912  1
  O  O74  1  0.755134  0.153160  0.305289  1
  O  O75  1  0.918357  0.636338  0.526488  1
  O  O76  1  0.439211  0.129514  0.315802  1
  O  O77  1  0.557246  0.628702  0.178072  1
