# generated using pymatgen
data_MnP2O7
_symmetry_space_group_name_H-M   'P 1'
_cell_length_a   5.11253309
_cell_length_b   8.23634020
_cell_length_c   13.10118067
_cell_angle_alpha   90.00000000
_cell_angle_beta   93.26765694
_cell_angle_gamma   90.00000000
_symmetry_Int_Tables_number   1
_chemical_formula_structural   MnP2O7
_chemical_formula_sum   'Mn4 P8 O28'
_cell_volume   550.77494154
_cell_formula_units_Z   4
loop_
 _symmetry_equiv_pos_site_id
 _symmetry_equiv_pos_as_xyz
  1  'x, y, z'
loop_
 _atom_site_type_symbol
 _atom_site_label
 _atom_site_symmetry_multiplicity
 _atom_site_fract_x
 _atom_site_fract_y
 _atom_site_fract_z
 _atom_site_occupancy
  Mn  Mn0  1  0.772167  0.149513  0.132951  1
  Mn  Mn1  1  0.272167  0.350487  0.632951  1
  Mn  Mn2  1  0.227833  0.850487  0.867049  1
  Mn  Mn3  1  0.727833  0.649513  0.367049  1
  P  P4  1  0.732255  0.543898  0.182646  1
  P  P5  1  0.259338  0.195422  0.978651  1
  P  P6  1  0.740662  0.804578  0.021349  1
  P  P7  1  0.232255  0.956102  0.682646  1
  P  P8  1  0.267745  0.456102  0.817354  1
  P  P9  1  0.767745  0.043898  0.317354  1
  P  P10  1  0.240662  0.695422  0.521349  1
  P  P11  1  0.759338  0.304578  0.478651  1
  O  O12  1  0.011177  0.872005  0.739380  1
  O  O13  1  0.465921  0.923636  0.761052  1
  O  O14  1  0.488823  0.372005  0.760620  1
  O  O15  1  0.263592  0.873854  0.574213  1
  O  O16  1  0.674121  0.368194  0.159059  1
  O  O17  1  0.048222  0.332716  0.509635  1
  O  O18  1  0.588859  0.287558  0.568891  1
  O  O19  1  0.338192  0.576493  0.604945  1
  O  O20  1  0.988823  0.127995  0.260620  1
  O  O21  1  0.661808  0.423507  0.395055  1
  O  O22  1  0.825879  0.868194  0.340941  1
  O  O23  1  0.951778  0.667284  0.490365  1
  O  O24  1  0.088859  0.212442  0.068891  1
  O  O25  1  0.763592  0.626146  0.074213  1
  O  O26  1  0.548222  0.167284  0.009635  1
  O  O27  1  0.236408  0.373854  0.925787  1
  O  O28  1  0.911141  0.787558  0.931109  1
  O  O29  1  0.174121  0.131806  0.659059  1
  O  O30  1  0.838192  0.923507  0.104945  1
  O  O31  1  0.034079  0.423636  0.738948  1
  O  O32  1  0.736408  0.126146  0.425787  1
  O  O33  1  0.161808  0.076493  0.895055  1
  O  O34  1  0.325879  0.631806  0.840941  1
  O  O35  1  0.451778  0.832716  0.990365  1
  O  O36  1  0.965921  0.576364  0.261052  1
  O  O37  1  0.411141  0.712442  0.431109  1
  O  O38  1  0.511177  0.627995  0.239380  1
  O  O39  1  0.534079  0.076364  0.238948  1
