# generated using pymatgen
data_LiBi2(PO4)3
_symmetry_space_group_name_H-M   'P 1'
_cell_length_a   8.98111858
_cell_length_b   12.77225579
_cell_length_c   9.31979303
_cell_angle_alpha   90.00000000
_cell_angle_beta   90.00000000
_cell_angle_gamma   91.19143588
_symmetry_Int_Tables_number   1
_chemical_formula_structural   LiBi2(PO4)3
_chemical_formula_sum   'Li4 Bi8 P12 O48'
_cell_volume   1068.83434945
_cell_formula_units_Z   4
loop_
 _symmetry_equiv_pos_site_id
 _symmetry_equiv_pos_as_xyz
  1  'x, y, z'
loop_
 _atom_site_type_symbol
 _atom_site_label
 _atom_site_symmetry_multiplicity
 _atom_site_fract_x
 _atom_site_fract_y
 _atom_site_fract_z
 _atom_site_occupancy
  Li  Li0  1  0.712481  0.682342  0.722381  1
  Li  Li1  1  0.787519  0.817658  0.222381  1
  Li  Li2  1  0.212481  0.182342  0.777619  1
  Li  Li3  1  0.287519  0.317658  0.277619  1
  Bi  Bi4  1  0.747926  0.894197  0.542526  1
  Bi  Bi5  1  0.252074  0.105803  0.457474  1
  Bi  Bi6  1  0.752074  0.605803  0.042526  1
  Bi  Bi7  1  0.252290  0.878913  0.038384  1
  Bi  Bi8  1  0.247926  0.394197  0.957474  1
  Bi  Bi9  1  0.247710  0.621087  0.538384  1
  Bi  Bi10  1  0.747710  0.121087  0.961616  1
  Bi  Bi11  1  0.752290  0.378913  0.461616  1
  P  P12  1  0.542171  0.994831  0.244105  1
  P  P13  1  0.403932  0.660992  0.870224  1
  P  P14  1  0.604579  0.644708  0.402810  1
  P  P15  1  0.042171  0.494831  0.255895  1
  P  P16  1  0.395421  0.355292  0.597190  1
  P  P17  1  0.104579  0.144708  0.097190  1
  P  P18  1  0.596068  0.339008  0.129776  1
  P  P19  1  0.957829  0.505169  0.744105  1
  P  P20  1  0.096068  0.839008  0.370223  1
  P  P21  1  0.457829  0.005169  0.755895  1
  P  P22  1  0.903932  0.160992  0.629776  1
  P  P23  1  0.895421  0.855292  0.902810  1
  O  O24  1  0.570374  0.350832  0.615699  1
  O  O25  1  0.842143  0.784494  0.027493  1
  O  O26  1  0.831958  0.815354  0.757891  1
  O  O27  1  0.419545  0.929686  0.882805  1
  O  O28  1  0.429626  0.649168  0.384301  1
  O  O29  1  0.929626  0.149168  0.115699  1
  O  O30  1  0.188354  0.781179  0.487770  1
  O  O31  1  0.474610  0.062561  0.362039  1
  O  O32  1  0.353803  0.469699  0.565625  1
  O  O33  1  0.136197  0.800981  0.214696  1
  O  O34  1  0.071843  0.184355  0.614077  1
  O  O35  1  0.811646  0.218821  0.512230  1
  O  O36  1  0.974610  0.562561  0.137961  1
  O  O37  1  0.668042  0.684646  0.257891  1
  O  O38  1  0.131717  0.955511  0.390920  1
  O  O39  1  0.863803  0.199019  0.785305  1
  O  O40  1  0.853803  0.969699  0.934375  1
  O  O41  1  0.525390  0.937439  0.637961  1
  O  O42  1  0.146197  0.030301  0.065625  1
  O  O43  1  0.657857  0.715506  0.527493  1
  O  O44  1  0.430764  0.905325  0.194572  1
  O  O45  1  0.631717  0.455511  0.109080  1
  O  O46  1  0.157857  0.215506  0.972507  1
  O  O47  1  0.680138  0.937088  0.299406  1
  O  O48  1  0.919545  0.429686  0.617195  1
  O  O49  1  0.646197  0.530301  0.434375  1
  O  O50  1  0.331958  0.315354  0.742109  1
  O  O51  1  0.868283  0.044489  0.609080  1
  O  O52  1  0.168042  0.184646  0.242109  1
  O  O53  1  0.342143  0.284494  0.472507  1
  O  O54  1  0.930764  0.405325  0.305428  1
  O  O55  1  0.311646  0.718821  0.987770  1
  O  O56  1  0.069236  0.594675  0.694572  1
  O  O57  1  0.569236  0.094675  0.805428  1
  O  O58  1  0.070374  0.850832  0.884301  1
  O  O59  1  0.580455  0.070314  0.117195  1
  O  O60  1  0.180138  0.437088  0.200594  1
  O  O61  1  0.928157  0.815645  0.385923  1
  O  O62  1  0.025390  0.437439  0.862039  1
  O  O63  1  0.571843  0.684355  0.885923  1
  O  O64  1  0.368283  0.544489  0.890920  1
  O  O65  1  0.428157  0.315645  0.114077  1
  O  O66  1  0.363803  0.699019  0.714695  1
  O  O67  1  0.080455  0.570314  0.382805  1
  O  O68  1  0.819862  0.562912  0.799406  1
  O  O69  1  0.636197  0.300981  0.285305  1
  O  O70  1  0.319862  0.062912  0.700594  1
  O  O71  1  0.688354  0.281179  0.012230  1
