# generated using pymatgen
data_VP2O7
_symmetry_space_group_name_H-M   'P 1'
_cell_length_a   6.39305179
_cell_length_b   6.27302163
_cell_length_c   6.88704036
_cell_angle_alpha   113.72997888
_cell_angle_beta   91.22731131
_cell_angle_gamma   85.02635660
_symmetry_Int_Tables_number   1
_chemical_formula_structural   VP2O7
_chemical_formula_sum   'V2 P4 O14'
_cell_volume   251.86485409
_cell_formula_units_Z   2
loop_
 _symmetry_equiv_pos_site_id
 _symmetry_equiv_pos_as_xyz
  1  'x, y, z'
loop_
 _atom_site_type_symbol
 _atom_site_label
 _atom_site_symmetry_multiplicity
 _atom_site_fract_x
 _atom_site_fract_y
 _atom_site_fract_z
 _atom_site_occupancy
  V  V0  1  0.647184  0.092854  0.203819  1
  V  V1  1  0.353066  0.907194  0.796214  1
  P  P2  1  0.386408  0.336591  0.646632  1
  P  P3  1  0.613504  0.663518  0.353399  1
  P  P4  1  0.133622  0.237464  0.245689  1
  P  P5  1  0.866429  0.762451  0.754237  1
  O  O6  1  0.614418  0.402334  0.208245  1
  O  O7  1  0.898130  0.560261  0.810848  1
  O  O8  1  0.101723  0.439616  0.189128  1
  O  O9  1  0.056257  0.906220  0.775905  1
  O  O10  1  0.193322  0.300669  0.492367  1
  O  O11  1  0.353438  0.203363  0.786632  1
  O  O12  1  0.330531  0.059516  0.120340  1
  O  O13  1  0.385533  0.597780  0.791813  1
  O  O14  1  0.806624  0.699270  0.507625  1
  O  O15  1  0.587082  0.237806  0.511657  1
  O  O16  1  0.943775  0.093612  0.224005  1
  O  O17  1  0.669433  0.940458  0.879691  1
  O  O18  1  0.646687  0.796655  0.213383  1
  O  O19  1  0.412834  0.762369  0.488367  1
