# generated using pymatgen
data_Li3Sn2(PO4)3
_symmetry_space_group_name_H-M   'P 1'
_cell_length_a   8.67482219
_cell_length_b   10.17619488
_cell_length_c   8.67482264
_cell_angle_alpha   115.22861333
_cell_angle_beta   60.00000216
_cell_angle_gamma   115.22861399
_symmetry_Int_Tables_number   1
_chemical_formula_structural   Li3Sn2(PO4)3
_chemical_formula_sum   'Li6 Sn4 P6 O24'
_cell_volume   577.30559789
_cell_formula_units_Z   2
loop_
 _symmetry_equiv_pos_site_id
 _symmetry_equiv_pos_as_xyz
  1  'x, y, z'
loop_
 _atom_site_type_symbol
 _atom_site_label
 _atom_site_symmetry_multiplicity
 _atom_site_fract_x
 _atom_site_fract_y
 _atom_site_fract_z
 _atom_site_occupancy
  Li  Li0  1  0.245189  0.858559  0.670575  1
  Li  Li1  1  0.329425  0.141441  0.057205  1
  Li  Li2  1  0.942795  0.858559  0.245189  1
  Li  Li3  1  0.754811  0.141441  0.329425  1
  Li  Li4  1  0.057205  0.141441  0.754811  1
  Li  Li5  1  0.670575  0.858559  0.942795  1
  Sn  Sn6  1  0.657478  0.972433  0.657478  1
  Sn  Sn7  1  0.837031  0.511093  0.837031  1
  Sn  Sn8  1  0.162969  0.488907  0.162969  1
  Sn  Sn9  1  0.342522  0.027567  0.342522  1
  P  P10  1  0.047333  0.220171  0.451355  1
  P  P11  1  0.278516  0.779829  0.952667  1
  P  P12  1  0.952667  0.779829  0.548645  1
  P  P13  1  0.721484  0.220171  0.047333  1
  P  P14  1  0.451355  0.220171  0.721484  1
  P  P15  1  0.548645  0.779829  0.278516  1
  O  O16  1  0.143056  0.226858  0.252814  1
  O  O17  1  0.464862  0.097449  0.783648  1
  O  O18  1  0.983712  0.632802  0.401969  1
  O  O19  1  0.747186  0.773142  0.169012  1
  O  O20  1  0.494315  0.844174  0.847914  1
  O  O21  1  0.598031  0.367198  0.752879  1
  O  O22  1  0.498056  0.155826  0.505685  1
  O  O23  1  0.856944  0.773142  0.747186  1
  O  O24  1  0.216352  0.902551  0.151061  1
  O  O25  1  0.169012  0.773142  0.856944  1
  O  O26  1  0.848939  0.097449  0.464862  1
  O  O27  1  0.252814  0.226858  0.830988  1
  O  O28  1  0.152086  0.155826  0.498056  1
  O  O29  1  0.783648  0.097449  0.848939  1
  O  O30  1  0.401969  0.632802  0.247121  1
  O  O31  1  0.505685  0.155826  0.152086  1
  O  O32  1  0.501944  0.844174  0.494315  1
  O  O33  1  0.535138  0.902551  0.216352  1
  O  O34  1  0.151061  0.902551  0.535138  1
  O  O35  1  0.247121  0.632802  0.983712  1
  O  O36  1  0.752879  0.367198  0.016287  1
  O  O37  1  0.847914  0.844174  0.501944  1
  O  O38  1  0.830988  0.226858  0.143056  1
  O  O39  1  0.016287  0.367198  0.598031  1
