# generated using pymatgen
data_LiFe(PO3)4
_symmetry_space_group_name_H-M   'P 1'
_cell_length_a   5.22408147
_cell_length_b   10.46990017
_cell_length_c   10.46989990
_cell_angle_alpha   71.07964754
_cell_angle_beta   97.88830433
_cell_angle_gamma   97.88830595
_symmetry_Int_Tables_number   1
_chemical_formula_structural   LiFe(PO3)4
_chemical_formula_sum   'Li2 Fe2 P8 O24'
_cell_volume   533.95634334
_cell_formula_units_Z   2
loop_
 _symmetry_equiv_pos_site_id
 _symmetry_equiv_pos_as_xyz
  1  'x, y, z'
loop_
 _atom_site_type_symbol
 _atom_site_label
 _atom_site_symmetry_multiplicity
 _atom_site_fract_x
 _atom_site_fract_y
 _atom_site_fract_z
 _atom_site_occupancy
  Li  Li0  1  0.422953  0.423650  0.423650  1
  Li  Li1  1  0.577047  0.576350  0.576350  1
  Fe  Fe2  1  0.000000  0.000000  0.500000  1
  Fe  Fe3  1  0.000000  0.500000  0.000000  1
  P  P4  1  0.823307  0.215605  0.632190  1
  P  P5  1  0.465069  0.058162  0.300780  1
  P  P6  1  0.534931  0.699220  0.941838  1
  P  P7  1  0.176693  0.367810  0.784395  1
  P  P8  1  0.176693  0.784395  0.367810  1
  P  P9  1  0.465069  0.300780  0.058162  1
  P  P10  1  0.823307  0.632190  0.215605  1
  P  P11  1  0.534931  0.941838  0.699220  1
  O  O12  1  0.626207  0.089862  0.710589  1
  O  O13  1  0.678955  0.335321  0.560569  1
  O  O14  1  0.987829  0.167530  0.551728  1
  O  O15  1  0.373793  0.289411  0.910138  1
  O  O16  1  0.391115  0.145982  0.145982  1
  O  O17  1  0.012171  0.448272  0.832470  1
  O  O18  1  1.000000  0.764485  0.235515  1
  O  O19  1  0.245133  0.668611  0.926689  1
  O  O20  1  0.754867  0.331389  0.073312  1
  O  O21  1  0.608885  0.854018  0.854018  1
  O  O22  1  0.373793  0.910138  0.289411  1
  O  O23  1  0.754867  0.073312  0.331389  1
  O  O24  1  0.321045  0.664679  0.439431  1
  O  O25  1  0.245133  0.926689  0.668611  1
  O  O26  1  0.695154  0.907235  0.607443  1
  O  O27  1  0.321045  0.439431  0.664679  1
  O  O28  1  0.304846  0.092765  0.392557  1
  O  O29  1  0.012171  0.832470  0.448272  1
  O  O30  1  0.987829  0.551728  0.167530  1
  O  O31  1  0.304846  0.392557  0.092765  1
  O  O32  1  0.626207  0.710589  0.089862  1
  O  O33  1  0.678955  0.560569  0.335321  1
  O  O34  1  0.000000  0.235515  0.764485  1
  O  O35  1  0.695154  0.607443  0.907235  1
