# generated using pymatgen
data_Bi3(PO5)2
_symmetry_space_group_name_H-M   'P 1'
_cell_length_a   6.79401348
_cell_length_b   7.06478505
_cell_length_c   5.56587177
_cell_angle_alpha   70.75569351
_cell_angle_beta   96.64268855
_cell_angle_gamma   71.92255549
_symmetry_Int_Tables_number   1
_chemical_formula_structural   Bi3(PO5)2
_chemical_formula_sum   'Bi3 P2 O10'
_cell_volume   232.59658789
_cell_formula_units_Z   1
loop_
 _symmetry_equiv_pos_site_id
 _symmetry_equiv_pos_as_xyz
  1  'x, y, z'
loop_
 _atom_site_type_symbol
 _atom_site_label
 _atom_site_symmetry_multiplicity
 _atom_site_fract_x
 _atom_site_fract_y
 _atom_site_fract_z
 _atom_site_occupancy
  Bi  Bi0  1  0.176757  0.246054  0.398924  1
  Bi  Bi1  1  0.410011  0.674993  0.735528  1
  Bi  Bi2  1  1.002307  0.991722  0.981826  1
  P  P3  1  0.611196  0.334599  0.384649  1
  P  P4  1  0.944191  0.579075  0.750876  1
  O  O5  1  0.089392  0.654704  0.914492  1
  O  O6  1  0.271661  0.983720  0.804898  1
  O  O7  1  0.228855  0.934634  0.339835  1
  O  O8  1  0.973043  0.346090  0.943041  1
  O  O9  1  0.513999  0.360843  0.618813  1
  O  O10  1  0.027780  0.576184  0.507797  1
  O  O11  1  0.581056  0.555633  0.173693  1
  O  O12  1  0.495468  0.217482  0.264278  1
  O  O13  1  0.854411  0.194245  0.497378  1
  O  O14  1  0.710213  0.735988  0.680943  1
