# generated using pymatgen
data_CoPO4
_symmetry_space_group_name_H-M   'P 1'
_cell_length_a   8.62733511
_cell_length_b   5.27092316
_cell_length_c   8.62309747
_cell_angle_alpha   90.00000000
_cell_angle_beta   106.16473046
_cell_angle_gamma   90.00000000
_symmetry_Int_Tables_number   1
_chemical_formula_structural   CoPO4
_chemical_formula_sum   'Co4 P4 O16'
_cell_volume   376.62426818
_cell_formula_units_Z   4
loop_
 _symmetry_equiv_pos_site_id
 _symmetry_equiv_pos_as_xyz
  1  'x, y, z'
loop_
 _atom_site_type_symbol
 _atom_site_label
 _atom_site_symmetry_multiplicity
 _atom_site_fract_x
 _atom_site_fract_y
 _atom_site_fract_z
 _atom_site_occupancy
  O  O0  1  0.367895  0.288003  0.073896  1
  O  O1  1  0.935909  0.869762  0.360215  1
  O  O2  1  0.857319  0.289122  0.574838  1
  O  O3  1  0.658571  0.227257  0.225460  1
  O  O4  1  0.018019  0.213780  0.866470  1
  O  O5  1  0.003965  0.420190  0.308611  1
  O  O6  1  0.229585  0.637822  0.802273  1
  O  O7  1  0.289008  0.082417  0.728695  1
  O  O8  1  0.158572  0.772742  0.225460  1
  O  O9  1  0.789008  0.917584  0.728696  1
  O  O10  1  0.518019  0.786220  0.866469  1
  O  O11  1  0.435909  0.130237  0.360216  1
  O  O12  1  0.867895  0.711998  0.073896  1
  O  O13  1  0.503965  0.579811  0.308610  1
  O  O14  1  0.729585  0.362179  0.802274  1
  O  O15  1  0.357318  0.710878  0.574838  1
  P  P16  1  0.349025  0.804181  0.742135  1
  P  P17  1  0.490750  0.306005  0.240710  1
  P  P18  1  0.849025  0.195820  0.742136  1
  P  P19  1  0.990750  0.693994  0.240710  1
  Co  Co20  1  0.864254  0.197104  0.370239  1
  Co  Co21  1  0.726208  0.697331  0.870661  1
  Co  Co22  1  0.364253  0.802897  0.370239  1
  Co  Co23  1  0.226208  0.302668  0.870661  1
