# generated using pymatgen
data_Li5VP2(O4F)2
_symmetry_space_group_name_H-M   'P 1'
_cell_length_a   6.45686188
_cell_length_b   10.52020965
_cell_length_c   10.93660380
_cell_angle_alpha   90.00000000
_cell_angle_beta   90.00000000
_cell_angle_gamma   90.01846413
_symmetry_Int_Tables_number   1
_chemical_formula_structural   Li5VP2(O4F)2
_chemical_formula_sum   'Li20 V4 P8 O32 F8'
_cell_volume   742.89656101
_cell_formula_units_Z   4
loop_
 _symmetry_equiv_pos_site_id
 _symmetry_equiv_pos_as_xyz
  1  'x, y, z'
loop_
 _atom_site_type_symbol
 _atom_site_label
 _atom_site_symmetry_multiplicity
 _atom_site_fract_x
 _atom_site_fract_y
 _atom_site_fract_z
 _atom_site_occupancy
  Li  Li0  1  0.967849  0.754198  0.336611  1
  Li  Li1  1  0.032151  0.745802  0.836611  1
  Li  Li2  1  0.508602  0.268219  0.665552  1
  Li  Li3  1  0.258879  0.727476  0.083500  1
  Li  Li4  1  0.255016  0.474598  0.723941  1
  Li  Li5  1  0.500000  0.500000  0.500000  1
  Li  Li6  1  0.032151  0.245802  0.663389  1
  Li  Li7  1  0.744984  0.025402  0.223941  1
  Li  Li8  1  0.741121  0.772524  0.583500  1
  Li  Li9  1  0.491398  0.731781  0.334448  1
  Li  Li10  1  0.500000  0.000000  0.500000  1
  Li  Li11  1  0.741121  0.272524  0.916500  1
  Li  Li12  1  0.258879  0.227476  0.416500  1
  Li  Li13  1  0.508602  0.768219  0.834448  1
  Li  Li14  1  0.255016  0.974598  0.776059  1
  Li  Li15  1  0.491398  0.231781  0.165552  1
  Li  Li16  1  0.500000  0.000000  0.000000  1
  Li  Li17  1  0.744984  0.525402  0.276059  1
  Li  Li18  1  0.967849  0.254198  0.163389  1
  Li  Li19  1  0.500000  0.500000  0.000000  1
  V  V20  1  0.000000  0.500000  0.500000  1
  V  V21  1  0.000000  0.000000  0.000000  1
  V  V22  1  0.000000  0.000000  0.500000  1
  V  V23  1  0.000000  0.500000  0.000000  1
  P  P24  1  0.252096  0.476380  0.255217  1
  P  P25  1  0.741265  0.744285  0.079305  1
  P  P26  1  0.741265  0.244285  0.420695  1
  P  P27  1  0.252096  0.976380  0.244783  1
  P  P28  1  0.258735  0.255715  0.920695  1
  P  P29  1  0.258735  0.755715  0.579305  1
  P  P30  1  0.747904  0.023620  0.755217  1
  P  P31  1  0.747904  0.523620  0.744783  1
  O  O32  1  0.059985  0.815611  0.518150  1
  O  O33  1  0.058496  0.533990  0.323396  1
  O  O34  1  0.941504  0.966010  0.823396  1
  O  O35  1  0.453274  0.804243  0.513137  1
  O  O36  1  0.546726  0.195757  0.486863  1
  O  O37  1  0.762013  0.973856  0.619921  1
  O  O38  1  0.453274  0.304243  0.986863  1
  O  O39  1  0.243332  0.329132  0.255280  1
  O  O40  1  0.553857  0.468118  0.684330  1
  O  O41  1  0.059985  0.315611  0.981850  1
  O  O42  1  0.446143  0.031882  0.184330  1
  O  O43  1  0.553857  0.968118  0.815670  1
  O  O44  1  0.762645  0.390518  0.443668  1
  O  O45  1  0.739278  0.216508  0.282785  1
  O  O46  1  0.237355  0.609482  0.556332  1
  O  O47  1  0.237987  0.026144  0.380079  1
  O  O48  1  0.446143  0.531882  0.315670  1
  O  O49  1  0.260722  0.783492  0.717215  1
  O  O50  1  0.756668  0.670868  0.744720  1
  O  O51  1  0.940015  0.184389  0.481850  1
  O  O52  1  0.243332  0.829132  0.244720  1
  O  O53  1  0.260722  0.283492  0.782785  1
  O  O54  1  0.940015  0.684389  0.018150  1
  O  O55  1  0.546726  0.695757  0.013137  1
  O  O56  1  0.762645  0.890518  0.056332  1
  O  O57  1  0.058496  0.033990  0.176604  1
  O  O58  1  0.941504  0.466010  0.676604  1
  O  O59  1  0.237355  0.109482  0.943668  1
  O  O60  1  0.739278  0.716508  0.217215  1
  O  O61  1  0.237987  0.526144  0.119921  1
  O  O62  1  0.756668  0.170868  0.755280  1
  O  O63  1  0.762013  0.473856  0.880079  1
  F  F64  1  0.773993  0.132746  0.030865  1
  F  F65  1  0.213273  0.059749  0.623256  1
  F  F66  1  0.786727  0.440251  0.123256  1
  F  F67  1  0.226007  0.367254  0.530865  1
  F  F68  1  0.226007  0.867254  0.969135  1
  F  F69  1  0.786727  0.940251  0.376744  1
  F  F70  1  0.213273  0.559749  0.876744  1
  F  F71  1  0.773993  0.632746  0.469135  1
