# generated using pymatgen
data_Li14Ni9(P2O7)8
_symmetry_space_group_name_H-M   'P 1'
_cell_length_a   10.69722290
_cell_length_b   9.57592018
_cell_length_c   12.70225198
_cell_angle_alpha   69.21422202
_cell_angle_beta   116.30471080
_cell_angle_gamma   108.08823933
_symmetry_Int_Tables_number   1
_chemical_formula_structural   Li14Ni9(P2O7)8
_chemical_formula_sum   'Li14 Ni9 P16 O56'
_cell_volume   1072.13208062
_cell_formula_units_Z   1
loop_
 _symmetry_equiv_pos_site_id
 _symmetry_equiv_pos_as_xyz
  1  'x, y, z'
loop_
 _atom_site_type_symbol
 _atom_site_label
 _atom_site_symmetry_multiplicity
 _atom_site_fract_x
 _atom_site_fract_y
 _atom_site_fract_z
 _atom_site_occupancy
  Li  Li0  1  0.499780  0.370459  0.816617  1
  Li  Li1  1  0.626258  0.951758  0.092481  1
  Li  Li2  1  0.500220  0.629541  0.183383  1
  Li  Li3  1  0.622793  0.452866  0.591932  1
  Li  Li4  1  0.877687  0.067617  0.416790  1
  Li  Li5  1  0.509641  0.130022  0.676347  1
  Li  Li6  1  0.021024  0.142380  0.899083  1
  Li  Li7  1  0.867956  0.570547  0.907513  1
  Li  Li8  1  0.132044  0.429453  0.092487  1
  Li  Li9  1  0.490359  0.869978  0.323653  1
  Li  Li10  1  0.122313  0.932383  0.583210  1
  Li  Li11  1  0.373742  0.048242  0.907519  1
  Li  Li12  1  0.978976  0.857620  0.100917  1
  Li  Li13  1  0.377207  0.547134  0.408068  1
  Ni  Ni14  1  0.780446  0.801229  0.580623  1
  Ni  Ni15  1  0.779016  0.300716  0.080430  1
  Ni  Ni16  1  0.254716  0.064747  0.195609  1
  Ni  Ni17  1  0.219554  0.198771  0.419376  1
  Ni  Ni18  1  0.220984  0.699284  0.919570  1
  Ni  Ni19  1  0.745284  0.935253  0.804391  1
  Ni  Ni20  1  0.738280  0.430723  0.299786  1
  Ni  Ni21  1  0.261720  0.569277  0.700214  1
  Ni  Ni22  1  0.000000  0.500000  0.500000  1
  P  P23  1  0.048905  0.966343  0.774438  1
  P  P24  1  0.697956  0.633395  0.015298  1
  P  P25  1  0.949511  0.531440  0.723441  1
  P  P26  1  0.296729  0.859837  0.483825  1
  P  P27  1  0.206841  0.732146  0.158583  1
  P  P28  1  0.302044  0.366605  0.984702  1
  P  P29  1  0.538202  0.698398  0.633195  1
  P  P30  1  0.461798  0.301602  0.366805  1
  P  P31  1  0.951095  0.033657  0.225562  1
  P  P32  1  0.200389  0.235141  0.656609  1
  P  P33  1  0.793159  0.267854  0.841417  1
  P  P34  1  0.050489  0.468560  0.276559  1
  P  P35  1  0.703271  0.140163  0.516175  1
  P  P36  1  0.536825  0.194378  0.133156  1
  P  P37  1  0.463175  0.805622  0.866844  1
  P  P38  1  0.799611  0.764859  0.343391  1
  O  O39  1  0.298760  0.405397  0.857284  1
  O  O40  1  0.148217  0.155618  0.554990  1
  O  O41  1  0.544301  0.659869  0.526651  1
  O  O42  1  0.276486  0.989773  0.516414  1
  O  O43  1  0.851783  0.844382  0.445010  1
  O  O44  1  0.461139  0.338580  0.077094  1
  O  O45  1  0.981932  0.900322  0.663790  1
  O  O46  1  0.542619  0.154765  0.027337  1
  O  O47  1  0.954484  0.447619  0.343505  1
  O  O48  1  0.702072  0.102073  0.642162  1
  O  O49  1  0.459103  0.839648  0.577678  1
  O  O50  1  0.308094  0.239827  0.287906  1
  O  O51  1  0.021053  0.598872  0.833162  1
  O  O52  1  0.723514  0.010227  0.483586  1
  O  O53  1  0.045516  0.552381  0.656495  1
  O  O54  1  0.644850  0.295762  0.749571  1
  O  O55  1  0.953393  0.951706  0.838599  1
  O  O56  1  0.046607  0.048294  0.161401  1
  O  O57  1  0.192294  0.417868  0.360508  1
  O  O58  1  0.701239  0.594603  0.142716  1
  O  O59  1  0.202127  0.217771  0.016456  1
  O  O60  1  0.540897  0.160352  0.422322  1
  O  O61  1  0.457381  0.845235  0.972663  1
  O  O62  1  0.355150  0.704238  0.250429  1
  O  O63  1  0.190702  0.915529  0.859894  1
  O  O64  1  0.091277  0.651593  0.226628  1
  O  O65  1  0.691906  0.760173  0.712094  1
  O  O66  1  0.807706  0.582132  0.639492  1
  O  O67  1  0.286216  0.495848  0.020876  1
  O  O68  1  0.202032  0.708241  0.520393  1
  O  O69  1  0.809298  0.084471  0.140106  1
  O  O70  1  0.978947  0.401128  0.166838  1
  O  O71  1  0.176739  0.400426  0.605649  1
  O  O72  1  0.908723  0.348407  0.773372  1
  O  O73  1  0.846495  0.349550  0.941889  1
  O  O74  1  0.819048  0.105668  0.891426  1
  O  O75  1  0.350032  0.212774  0.746878  1
  O  O76  1  0.540506  0.432913  0.295701  1
  O  O77  1  0.297928  0.897927  0.357838  1
  O  O78  1  0.797968  0.291759  0.479607  1
  O  O79  1  0.456594  0.065361  0.204036  1
  O  O80  1  0.018068  0.099678  0.336210  1
  O  O81  1  0.823261  0.599574  0.394351  1
  O  O82  1  0.690362  0.256545  0.212151  1
  O  O83  1  0.153505  0.650450  0.058111  1
  O  O84  1  0.543406  0.934639  0.795964  1
  O  O85  1  0.091108  0.150907  0.727678  1
  O  O86  1  0.309638  0.743455  0.787849  1
  O  O87  1  0.459494  0.567087  0.704299  1
  O  O88  1  0.180952  0.894332  0.108574  1
  O  O89  1  0.455699  0.340131  0.473349  1
  O  O90  1  0.649968  0.787226  0.253122  1
  O  O91  1  0.908892  0.849093  0.272322  1
  O  O92  1  0.538860  0.661420  0.922906  1
  O  O93  1  0.713784  0.504152  0.979124  1
  O  O94  1  0.797873  0.782229  0.983544  1
