# generated using pymatgen
data_LiSn(PO3)3
_symmetry_space_group_name_H-M   'P 1'
_cell_length_a   7.33378098
_cell_length_b   7.52146235
_cell_length_c   6.86279908
_cell_angle_alpha   100.77187189
_cell_angle_beta   97.52280097
_cell_angle_gamma   83.71419750
_symmetry_Int_Tables_number   1
_chemical_formula_structural   LiSn(PO3)3
_chemical_formula_sum   'Li2 Sn2 P6 O18'
_cell_volume   367.27832879
_cell_formula_units_Z   2
loop_
 _symmetry_equiv_pos_site_id
 _symmetry_equiv_pos_as_xyz
  1  'x, y, z'
loop_
 _atom_site_type_symbol
 _atom_site_label
 _atom_site_symmetry_multiplicity
 _atom_site_fract_x
 _atom_site_fract_y
 _atom_site_fract_z
 _atom_site_occupancy
  Li  Li0  1  0.173479  0.176484  0.447642  1
  Li  Li1  1  0.826521  0.823516  0.552358  1
  O  O2  1  0.010025  0.320595  0.269065  1
  O  O3  1  0.160139  0.353954  0.711912  1
  O  O4  1  0.112101  0.909534  0.175871  1
  O  O5  1  0.251559  0.950431  0.633321  1
  O  O6  1  0.228193  0.586829  0.008957  1
  O  O7  1  0.332808  0.615569  0.678840  1
  O  O8  1  0.345977  0.695808  0.351992  1
  O  O9  1  0.412685  0.201726  0.360351  1
  O  O10  1  0.562759  0.156604  0.927180  1
  O  O11  1  0.437241  0.843396  0.072820  1
  O  O12  1  0.587315  0.798274  0.639649  1
  O  O13  1  0.654023  0.304192  0.648008  1
  O  O14  1  0.667192  0.384431  0.321160  1
  O  O15  1  0.771807  0.413171  0.991043  1
  O  O16  1  0.748441  0.049569  0.366679  1
  O  O17  1  0.887899  0.090466  0.824129  1
  O  O18  1  0.839861  0.646046  0.288088  1
  O  O19  1  0.989975  0.679405  0.730935  1
  P  P20  1  0.160345  0.558155  0.769281  1
  P  P21  1  0.280169  0.775545  0.152437  1
  P  P22  1  0.385626  0.782877  0.586842  1
  P  P23  1  0.614374  0.217123  0.413158  1
  P  P24  1  0.719831  0.224455  0.847563  1
  P  P25  1  0.839655  0.441845  0.230719  1
  Sn  Sn26  1  0.233697  0.146148  0.948734  1
  Sn  Sn27  1  0.766303  0.853852  0.051266  1
