# generated using pymatgen
data_CrPO4
_symmetry_space_group_name_H-M   'P 1'
_cell_length_a   7.37035107
_cell_length_b   7.37018728
_cell_length_c   9.49766203
_cell_angle_alpha   89.99963381
_cell_angle_beta   89.99951983
_cell_angle_gamma   59.99900844
_symmetry_Int_Tables_number   1
_chemical_formula_structural   CrPO4
_chemical_formula_sum   'Cr6 P6 O24'
_cell_volume   446.79643837
_cell_formula_units_Z   6
loop_
 _symmetry_equiv_pos_site_id
 _symmetry_equiv_pos_as_xyz
  1  'x, y, z'
loop_
 _atom_site_type_symbol
 _atom_site_label
 _atom_site_symmetry_multiplicity
 _atom_site_fract_x
 _atom_site_fract_y
 _atom_site_fract_z
 _atom_site_occupancy
  Cr  Cr0  1  0.064468  0.392741  0.974226  1
  Cr  Cr1  1  0.542686  0.064530  0.974250  1
  Cr  Cr2  1  0.392740  0.542722  0.974229  1
  Cr  Cr3  1  0.457252  0.607250  0.474229  1
  Cr  Cr4  1  0.607265  0.935522  0.474204  1
  Cr  Cr5  1  0.935466  0.457318  0.474261  1
  O  O6  1  -0.000002  0.000003  0.687259  1
  O  O7  1  0.118695  0.113027  0.964452  1
  O  O8  1  0.139775  0.325134  0.621222  1
  O  O9  1  0.106607  0.462997  0.327996  1
  O  O10  1  0.430406  0.106589  0.327996  1
  O  O11  1  0.333329  0.333332  0.842729  1
  O  O12  1  0.333340  0.333333  0.109775  1
  O  O13  1  0.113016  0.768301  0.964444  1
  O  O14  1  0.325137  0.535089  0.621216  1
  O  O15  1  0.535098  0.139766  0.621211  1
  O  O16  1  0.231714  0.886979  0.464450  1
  O  O17  1  0.463007  0.430386  0.327992  1
  O  O18  1  0.464898  0.674869  0.121217  1
  O  O19  1  0.768290  0.118690  0.964454  1
  O  O20  1  0.569627  0.536985  0.828002  1
  O  O21  1  0.536975  0.893408  0.827995  1
  O  O22  1  0.666654  0.666677  0.342732  1
  O  O23  1  0.666676  0.666665  0.609778  1
  O  O24  1  0.881296  0.231717  0.464449  1
  O  O25  1  0.860216  0.464907  0.121215  1
  O  O26  1  0.674852  0.860226  0.121207  1
  O  O27  1  0.893400  0.569627  0.828005  1
  O  O28  1  0.887003  0.881284  0.464451  1
  O  O29  1  0.000016  0.999995  0.187280  1
  P  P30  1  1.000013  1.000011  0.531963  1
  P  P31  1  0.000001  1.000002  0.031974  1
  P  P32  1  0.333331  0.333321  0.280053  1
  P  P33  1  0.333344  0.333332  0.669416  1
  P  P34  1  0.666671  0.666653  0.169431  1
  P  P35  1  0.666676  0.666677  0.780049  1
