# generated using pymatgen
data_LiMo4(P2O11)2
_symmetry_space_group_name_H-M   'P 1'
_cell_length_a   7.51910193
_cell_length_b   6.47246449
_cell_length_c   9.08212367
_cell_angle_alpha   90.24361375
_cell_angle_beta   105.66451041
_cell_angle_gamma   90.74023878
_symmetry_Int_Tables_number   1
_chemical_formula_structural   LiMo4(P2O11)2
_chemical_formula_sum   'Li1 Mo4 P4 O22'
_cell_volume   425.53525986
_cell_formula_units_Z   1
loop_
 _symmetry_equiv_pos_site_id
 _symmetry_equiv_pos_as_xyz
  1  'x, y, z'
loop_
 _atom_site_type_symbol
 _atom_site_label
 _atom_site_symmetry_multiplicity
 _atom_site_fract_x
 _atom_site_fract_y
 _atom_site_fract_z
 _atom_site_occupancy
  Li  Li0  1  0.500000  0.000000  0.000000  1
  Mo  Mo1  1  0.391080  0.246951  0.297919  1
  Mo  Mo2  1  0.830541  0.744537  0.147580  1
  Mo  Mo3  1  0.608920  0.753049  0.702081  1
  Mo  Mo4  1  0.169459  0.255463  0.852420  1
  P  P5  1  0.921359  0.247709  0.115453  1
  P  P6  1  0.488981  0.751921  0.325371  1
  P  P7  1  0.511019  0.248079  0.674629  1
  P  P8  1  0.078641  0.752291  0.884547  1
  O  O9  1  0.579409  0.764095  0.188629  1
  O  O10  1  0.363495  0.236153  0.093418  1
  O  O11  1  0.199549  0.559175  0.881315  1
  O  O12  1  0.788732  0.058654  0.106311  1
  O  O13  1  0.626261  0.242462  0.365137  1
  O  O14  1  0.800451  0.440825  0.118685  1
  O  O15  1  0.034178  0.237552  0.671466  1
  O  O16  1  0.420591  0.235905  0.811371  1
  O  O17  1  0.634264  0.445760  0.695798  1
  O  O18  1  0.090461  0.242094  0.250064  1
  O  O19  1  0.971647  0.254488  0.958999  1
  O  O20  1  0.636505  0.763847  0.906582  1
  O  O21  1  0.211268  0.941346  0.893689  1
  O  O22  1  0.638947  0.752223  0.477496  1
  O  O23  1  0.373739  0.757538  0.634863  1
  O  O24  1  0.909539  0.757906  0.749936  1
  O  O25  1  0.965822  0.762448  0.328534  1
  O  O26  1  0.357100  0.936907  0.307656  1
  O  O27  1  0.361053  0.247777  0.522504  1
  O  O28  1  0.365736  0.554240  0.304202  1
  O  O29  1  0.028353  0.745512  0.041001  1
  O  O30  1  0.642900  0.063093  0.692344  1
