# generated using pymatgen
data_Mn(PO3)3
_symmetry_space_group_name_H-M   'P 1'
_cell_length_a   7.37740009
_cell_length_b   7.16270708
_cell_length_c   6.92278279
_cell_angle_alpha   103.93056600
_cell_angle_beta   95.76355188
_cell_angle_gamma   83.38996101
_symmetry_Int_Tables_number   1
_chemical_formula_structural   Mn(PO3)3
_chemical_formula_sum   'Mn2 P6 O18'
_cell_volume   351.69089204
_cell_formula_units_Z   2
loop_
 _symmetry_equiv_pos_site_id
 _symmetry_equiv_pos_as_xyz
  1  'x, y, z'
loop_
 _atom_site_type_symbol
 _atom_site_label
 _atom_site_symmetry_multiplicity
 _atom_site_fract_x
 _atom_site_fract_y
 _atom_site_fract_z
 _atom_site_occupancy
  Mn  Mn0  1  0.168842  0.148109  0.439322  1
  Mn  Mn1  1  0.831158  0.851891  0.560678  1
  P  P2  1  0.148078  0.558939  0.754113  1
  P  P3  1  0.628933  0.222747  0.442274  1
  P  P4  1  0.371067  0.777253  0.557726  1
  P  P5  1  0.851922  0.441061  0.245887  1
  P  P6  1  0.298950  0.772059  0.142706  1
  P  P7  1  0.701050  0.227941  0.857294  1
  O  O8  1  0.149186  0.939355  0.207781  1
  O  O9  1  0.026767  0.328853  0.299655  1
  O  O10  1  0.847991  0.658571  0.310106  1
  O  O11  1  0.152009  0.341429  0.689894  1
  O  O12  1  0.228702  0.952378  0.599279  1
  O  O13  1  0.973233  0.671147  0.700345  1
  O  O14  1  0.679736  0.377683  0.329536  1
  O  O15  1  0.813242  0.393918  0.010911  1
  O  O16  1  0.567549  0.807077  0.608359  1
  O  O17  1  0.432451  0.192923  0.391641  1
  O  O18  1  0.320264  0.622317  0.670464  1
  O  O19  1  0.335563  0.664357  0.328655  1
  O  O20  1  0.186758  0.606082  0.989089  1
  O  O21  1  0.532961  0.195641  0.934642  1
  O  O22  1  0.467039  0.804359  0.065358  1
  O  O23  1  0.771298  0.047622  0.400721  1
  O  O24  1  0.850814  0.060645  0.792219  1
  O  O25  1  0.664437  0.335643  0.671345  1
