# generated using pymatgen
data_Li(WO2)2
_symmetry_space_group_name_H-M   'P 1'
_cell_length_a   6.02559497
_cell_length_b   6.02559511
_cell_length_c   6.02559451
_cell_angle_alpha   59.99999709
_cell_angle_beta   59.99999637
_cell_angle_gamma   60.00000190
_symmetry_Int_Tables_number   1
_chemical_formula_structural   Li(WO2)2
_chemical_formula_sum   'Li2 W4 O8'
_cell_volume   154.69802598
_cell_formula_units_Z   2
loop_
 _symmetry_equiv_pos_site_id
 _symmetry_equiv_pos_as_xyz
  1  'x, y, z'
loop_
 _atom_site_type_symbol
 _atom_site_label
 _atom_site_symmetry_multiplicity
 _atom_site_fract_x
 _atom_site_fract_y
 _atom_site_fract_z
 _atom_site_occupancy
  Li  Li0  1  0.125001  0.125000  0.125000  1
  Li  Li1  1  0.875000  0.874999  0.875001  1
  O  O2  1  0.749762  0.749762  0.250714  1
  O  O3  1  0.749762  0.749762  0.749762  1
  O  O4  1  0.250239  0.250238  0.749285  1
  O  O5  1  0.250239  0.749286  0.250238  1
  O  O6  1  0.250239  0.250238  0.250238  1
  O  O7  1  0.749286  0.250238  0.250238  1
  O  O8  1  0.749763  0.250713  0.749763  1
  O  O9  1  0.250715  0.749762  0.749763  1
  W  W10  1  0.499999  0.500001  0.500000  1
  W  W11  1  0.500001  0.000000  0.500000  1
  W  W12  1  0.000001  0.500001  0.500000  1
  W  W13  1  0.499999  0.500001  0.000000  1
