# generated using pymatgen
data_LiFe(SeO3)2
_symmetry_space_group_name_H-M   'P 1'
_cell_length_a   9.19981566
_cell_length_b   9.19981550
_cell_length_c   9.19981659
_cell_angle_alpha   107.74157750
_cell_angle_beta   107.74157718
_cell_angle_gamma   112.98881707
_symmetry_Int_Tables_number   1
_chemical_formula_structural   LiFe(SeO3)2
_chemical_formula_sum   'Li4 Fe4 Se8 O24'
_cell_volume   597.69275015
_cell_formula_units_Z   4
loop_
 _symmetry_equiv_pos_site_id
 _symmetry_equiv_pos_as_xyz
  1  'x, y, z'
loop_
 _atom_site_type_symbol
 _atom_site_label
 _atom_site_symmetry_multiplicity
 _atom_site_fract_x
 _atom_site_fract_y
 _atom_site_fract_z
 _atom_site_occupancy
  Li  Li0  1  0.375000  0.689585  0.814585  1
  Li  Li1  1  0.310415  0.125000  0.685415  1
  Li  Li2  1  0.875000  0.560415  0.185415  1
  Li  Li3  1  0.439585  0.625000  0.314585  1
  Fe  Fe4  1  0.162444  0.625000  0.037444  1
  Fe  Fe5  1  0.875000  0.837556  0.462556  1
  Fe  Fe6  1  0.375000  0.412444  0.537444  1
  Fe  Fe7  1  0.587556  0.125000  0.962556  1
  Se  Se8  1  0.615933  0.396258  0.328986  1
  Se  Se9  1  0.146258  0.865933  0.828986  1
  Se  Se10  1  0.713053  0.384067  0.780325  1
  Se  Se11  1  0.682729  0.853742  0.719675  1
  Se  Se12  1  0.603742  0.932729  0.219675  1
  Se  Se13  1  0.036947  0.317271  0.171014  1
  Se  Se14  1  0.067271  0.286947  0.671014  1
  Se  Se15  1  0.134067  0.963053  0.280325  1
  O  O16  1  0.318212  0.954821  0.779677  1
  O  O17  1  0.312988  0.154300  0.476503  1
  O  O18  1  0.122892  0.331280  0.372368  1
  O  O19  1  0.045179  0.824856  0.363390  1
  O  O20  1  0.904300  0.562988  0.976503  1
  O  O21  1  0.586485  0.927797  0.023497  1
  O  O22  1  0.072203  0.095700  0.658689  1
  O  O23  1  0.668720  0.041088  0.791613  1
  O  O24  1  0.163515  0.687012  0.841311  1
  O  O25  1  0.845700  0.322203  0.158689  1
  O  O26  1  0.431788  0.711466  0.136610  1
  O  O27  1  0.574856  0.295179  0.863390  1
  O  O28  1  0.249474  0.877108  0.208387  1
  O  O29  1  0.791088  0.918720  0.291613  1
  O  O30  1  0.081280  0.372892  0.872368  1
  O  O31  1  0.437012  0.413515  0.341311  1
  O  O32  1  0.677797  0.836485  0.523497  1
  O  O33  1  0.500526  0.208912  0.127632  1
  O  O34  1  0.958912  0.750526  0.627632  1
  O  O35  1  0.175144  0.538534  0.220323  1
  O  O36  1  0.627108  0.499474  0.708387  1
  O  O37  1  0.704821  0.568212  0.279677  1
  O  O38  1  0.461466  0.681788  0.636610  1
  O  O39  1  0.288534  0.425144  0.720323  1
