# generated using pymatgen
data_Li2Fe5(PO4)4
_symmetry_space_group_name_H-M   'P 1'
_cell_length_a   8.03783067
_cell_length_b   8.15800373
_cell_length_c   5.29787410
_cell_angle_alpha   91.67568240
_cell_angle_beta   101.34488474
_cell_angle_gamma   109.00338500
_symmetry_Int_Tables_number   1
_chemical_formula_structural   Li2Fe5(PO4)4
_chemical_formula_sum   'Li2 Fe5 P4 O16'
_cell_volume   320.40940339
_cell_formula_units_Z   1
loop_
 _symmetry_equiv_pos_site_id
 _symmetry_equiv_pos_as_xyz
  1  'x, y, z'
loop_
 _atom_site_type_symbol
 _atom_site_label
 _atom_site_symmetry_multiplicity
 _atom_site_fract_x
 _atom_site_fract_y
 _atom_site_fract_z
 _atom_site_occupancy
  Li  Li0  1  0.937921  0.701605  0.379296  1
  Li  Li1  1  0.062079  0.298395  0.620704  1
  Fe  Fe2  1  0.593391  0.331487  0.362001  1
  Fe  Fe3  1  0.743087  0.216133  0.907391  1
  Fe  Fe4  1  0.406609  0.668513  0.637999  1
  Fe  Fe5  1  0.256913  0.783867  0.092609  1
  Fe  Fe6  1  0.000000  0.000000  0.000000  1
  P  P7  1  0.793366  0.572509  0.861720  1
  P  P8  1  0.296545  0.030128  0.621429  1
  P  P9  1  0.703455  0.969872  0.378572  1
  P  P10  1  0.206634  0.427491  0.138280  1
  O  O11  1  0.774013  0.494304  0.123239  1
  O  O12  1  0.031595  0.265456  0.099484  1
  O  O13  1  0.676084  0.129864  0.237145  1
  O  O14  1  0.225987  0.505696  0.876761  1
  O  O15  1  0.630865  0.618774  0.732903  1
  O  O16  1  0.795219  0.040907  0.667937  1
  O  O17  1  0.818329  0.431613  0.674062  1
  O  O18  1  0.484199  0.169339  0.650363  1
  O  O19  1  0.515801  0.830661  0.349637  1
  O  O20  1  0.204781  0.959093  0.332063  1
  O  O21  1  0.369135  0.381226  0.267097  1
  O  O22  1  0.323916  0.870136  0.762855  1
  O  O23  1  0.829309  0.898701  0.258200  1
  O  O24  1  0.181671  0.568387  0.325938  1
  O  O25  1  0.968405  0.734544  0.900516  1
  O  O26  1  0.170691  0.101299  0.741800  1
