# generated using pymatgen
data_Li23(MnAs)20
_symmetry_space_group_name_H-M   'P 1'
_cell_length_a   4.43672166
_cell_length_b   4.43672166
_cell_length_c   55.40841271
_cell_angle_alpha   90.00000000
_cell_angle_beta   90.00000000
_cell_angle_gamma   90.00000000
_symmetry_Int_Tables_number   1
_chemical_formula_structural   Li23(MnAs)20
_chemical_formula_sum   'Li23 Mn20 As20'
_cell_volume   1090.68684947
_cell_formula_units_Z   1
loop_
 _symmetry_equiv_pos_site_id
 _symmetry_equiv_pos_as_xyz
  1  'x, y, z'
loop_
 _atom_site_type_symbol
 _atom_site_label
 _atom_site_symmetry_multiplicity
 _atom_site_fract_x
 _atom_site_fract_y
 _atom_site_fract_z
 _atom_site_occupancy
  As  As0  1  0.000000  0.500000  0.077469  1
  As  As1  1  0.000000  0.500000  0.177035  1
  As  As2  1  0.000000  0.500000  0.277070  1
  As  As3  1  0.000000  0.500000  0.576956  1
  As  As4  1  0.000000  0.500000  0.775382  1
  As  As5  1  0.000000  0.500000  0.876768  1
  As  As6  1  0.500000  0.000000  0.024884  1
  As  As7  1  0.500000  0.000000  0.122679  1
  As  As8  1  0.500000  0.000000  0.222953  1
  As  As9  1  0.500000  0.000000  0.422911  1
  As  As10  1  0.500000  0.000000  0.322945  1
  As  As11  1  0.500000  0.000000  0.522906  1
  As  As12  1  0.500000  0.000000  0.623020  1
  As  As13  1  0.500000  0.000000  0.823172  1
  As  As14  1  0.500000  0.000000  0.923111  1
  As  As15  1  0.500000  0.000000  0.724712  1
  As  As16  1  0.000000  0.500000  0.377070  1
  As  As17  1  0.000000  0.500000  0.477077  1
  As  As18  1  0.000000  0.500000  0.676790  1
  As  As19  1  0.000000  0.500000  0.976623  1
  Li  Li20  1  0.000000  0.000000  0.050441  1
  Li  Li21  1  0.000000  0.000000  0.149981  1
  Li  Li22  1  0.000000  0.000000  0.249952  1
  Li  Li23  1  0.000000  0.000000  0.449967  1
  Li  Li24  1  0.000000  0.000000  0.649080  1
  Li  Li25  1  0.000000  0.000000  0.750026  1
  Li  Li26  1  0.000000  0.000000  0.850975  1
  Li  Li27  1  0.000000  0.500000  0.826041  1
  Li  Li28  1  0.500000  0.500000  0.050441  1
  Li  Li29  1  0.500000  0.500000  0.249952  1
  Li  Li30  1  0.500000  0.500000  0.149981  1
  Li  Li31  1  0.500000  0.500000  0.350024  1
  Li  Li32  1  0.500000  0.500000  0.550011  1
  Li  Li33  1  0.500000  0.500000  0.449967  1
  Li  Li34  1  0.500000  0.500000  0.750026  1
  Li  Li35  1  0.500000  0.500000  0.649080  1
  Li  Li36  1  0.500000  0.000000  0.673993  1
  Li  Li37  1  0.500000  0.500000  0.850975  1
  Li  Li38  1  0.500000  0.500000  0.948833  1
  Li  Li39  1  0.500000  0.000000  0.973773  1
  Li  Li40  1  0.000000  0.000000  0.350024  1
  Li  Li41  1  0.000000  0.000000  0.550011  1
  Li  Li42  1  0.000000  0.000000  0.948833  1
  Mn  Mn43  1  0.000000  0.000000  0.001272  1
  Mn  Mn44  1  0.000000  0.000000  0.100059  1
  Mn  Mn45  1  0.000000  0.000000  0.199978  1
  Mn  Mn46  1  0.000000  0.000000  0.300065  1
  Mn  Mn47  1  0.000000  0.000000  0.399996  1
  Mn  Mn48  1  0.000000  0.000000  0.499960  1
  Mn  Mn49  1  0.000000  0.000000  0.599728  1
  Mn  Mn50  1  0.000000  0.000000  0.798752  1
  Mn  Mn51  1  0.000000  0.000000  0.899929  1
  Mn  Mn52  1  0.500000  0.500000  0.001272  1
  Mn  Mn53  1  0.500000  0.500000  0.199978  1
  Mn  Mn54  1  0.500000  0.500000  0.100059  1
  Mn  Mn55  1  0.500000  0.500000  0.399996  1
  Mn  Mn56  1  0.500000  0.500000  0.300065  1
  Mn  Mn57  1  0.500000  0.500000  0.499960  1
  Mn  Mn58  1  0.500000  0.500000  0.701300  1
  Mn  Mn59  1  0.500000  0.500000  0.599728  1
  Mn  Mn60  1  0.500000  0.500000  0.899929  1
  Mn  Mn61  1  0.500000  0.500000  0.798752  1
  Mn  Mn62  1  0.000000  0.000000  0.701300  1
