# generated using pymatgen
data_Mn6P7O24
_symmetry_space_group_name_H-M   'P 1'
_cell_length_a   5.39374824
_cell_length_b   27.07481374
_cell_length_c   6.56135394
_cell_angle_alpha   90.00000000
_cell_angle_beta   107.35948384
_cell_angle_gamma   90.00000000
_symmetry_Int_Tables_number   1
_chemical_formula_structural   Mn6P7O24
_chemical_formula_sum   'Mn12 P14 O48'
_cell_volume   914.54168231
_cell_formula_units_Z   2
loop_
 _symmetry_equiv_pos_site_id
 _symmetry_equiv_pos_as_xyz
  1  'x, y, z'
loop_
 _atom_site_type_symbol
 _atom_site_label
 _atom_site_symmetry_multiplicity
 _atom_site_fract_x
 _atom_site_fract_y
 _atom_site_fract_z
 _atom_site_occupancy
  Mn  Mn0  1  0.788625  0.899392  0.912716  1
  Mn  Mn1  1  0.877289  0.314187  0.714368  1
  Mn  Mn2  1  0.812882  0.453980  0.314736  1
  Mn  Mn3  1  0.122711  0.814187  0.285632  1
  Mn  Mn4  1  0.122711  0.685813  0.285632  1
  Mn  Mn5  1  0.788625  0.600608  0.912716  1
  Mn  Mn6  1  0.877289  0.185813  0.714368  1
  Mn  Mn7  1  0.187118  0.546020  0.685264  1
  Mn  Mn8  1  0.187118  0.953980  0.685264  1
  Mn  Mn9  1  0.211375  0.100608  0.087284  1
  Mn  Mn10  1  0.211375  0.399392  0.087284  1
  Mn  Mn11  1  0.812882  0.046020  0.314736  1
  P  P12  1  0.752710  0.168759  0.190396  1
  P  P13  1  0.290918  0.975773  0.204521  1
  P  P14  1  0.459446  0.250000  0.905517  1
  P  P15  1  0.247290  0.831241  0.809604  1
  P  P16  1  0.677917  0.610013  0.382623  1
  P  P17  1  0.247290  0.668759  0.809604  1
  P  P18  1  0.290918  0.524227  0.204521  1
  P  P19  1  0.752710  0.331241  0.190396  1
  P  P20  1  0.677917  0.889987  0.382623  1
  P  P21  1  0.540554  0.750000  0.094483  1
  P  P22  1  0.709082  0.024227  0.795479  1
  P  P23  1  0.322083  0.389987  0.617377  1
  P  P24  1  0.322083  0.110013  0.617377  1
  P  P25  1  0.709082  0.475773  0.795479  1
  O  O26  1  0.492206  0.796606  0.939892  1
  O  O27  1  0.507794  0.203394  0.060108  1
  O  O28  1  0.931912  0.335561  0.045364  1
  O  O29  1  0.828474  0.750000  0.213318  1
  O  O30  1  0.124846  0.952371  0.994898  1
  O  O31  1  0.477897  0.648115  0.385283  1
  O  O32  1  0.587864  0.525726  0.825194  1
  O  O33  1  0.171526  0.250000  0.786682  1
  O  O34  1  0.115207  0.806778  0.597491  1
  O  O35  1  0.477897  0.851885  0.385283  1
  O  O36  1  0.492206  0.703394  0.939892  1
  O  O37  1  0.412136  0.025726  0.174806  1
  O  O38  1  0.612759  0.119871  0.206454  1
  O  O39  1  0.115207  0.693222  0.597491  1
  O  O40  1  0.068088  0.835561  0.954636  1
  O  O41  1  0.931912  0.164439  0.045364  1
  O  O42  1  0.141245  0.521670  0.369816  1
  O  O43  1  0.884793  0.306778  0.402509  1
  O  O44  1  0.845286  0.622657  0.234767  1
  O  O45  1  0.653922  0.250000  0.778776  1
  O  O46  1  0.884793  0.193222  0.402509  1
  O  O47  1  0.612759  0.380129  0.206454  1
  O  O48  1  0.854804  0.904435  0.606714  1
  O  O49  1  0.154714  0.122657  0.765233  1
  O  O50  1  0.875154  0.452371  0.005102  1
  O  O51  1  0.854804  0.595565  0.606714  1
  O  O52  1  0.587864  0.974274  0.825194  1
  O  O53  1  0.545338  0.942132  0.290925  1
  O  O54  1  0.858755  0.021670  0.630184  1
  O  O55  1  0.522103  0.148115  0.614717  1
  O  O56  1  0.875154  0.047629  0.005102  1
  O  O57  1  0.507794  0.296606  0.060108  1
  O  O58  1  0.858755  0.478330  0.630184  1
  O  O59  1  0.387241  0.619871  0.793546  1
  O  O60  1  0.545338  0.557868  0.290925  1
  O  O61  1  0.145196  0.404435  0.393286  1
  O  O62  1  0.346078  0.750000  0.221224  1
  O  O63  1  0.124846  0.547629  0.994898  1
  O  O64  1  0.387241  0.880129  0.793546  1
  O  O65  1  0.522103  0.351885  0.614717  1
  O  O66  1  0.154714  0.377343  0.765233  1
  O  O67  1  0.845286  0.877343  0.234767  1
  O  O68  1  0.454662  0.442132  0.709075  1
  O  O69  1  0.145196  0.095565  0.393286  1
  O  O70  1  0.141245  0.978330  0.369816  1
  O  O71  1  0.412136  0.474274  0.174806  1
  O  O72  1  0.068088  0.664439  0.954636  1
  O  O73  1  0.454662  0.057868  0.709075  1
