# generated using pymatgen
data_Na2Li3FeO4
_symmetry_space_group_name_H-M   'P 1'
_cell_length_a   6.65787698
_cell_length_b   8.03649089
_cell_length_c   8.39212501
_cell_angle_alpha   90.00000000
_cell_angle_beta   90.00000000
_cell_angle_gamma   90.00000000
_symmetry_Int_Tables_number   1
_chemical_formula_structural   Na2Li3FeO4
_chemical_formula_sum   'Na8 Li12 Fe4 O16'
_cell_volume   449.02876969
_cell_formula_units_Z   4
loop_
 _symmetry_equiv_pos_site_id
 _symmetry_equiv_pos_as_xyz
  1  'x, y, z'
loop_
 _atom_site_type_symbol
 _atom_site_label
 _atom_site_symmetry_multiplicity
 _atom_site_fract_x
 _atom_site_fract_y
 _atom_site_fract_z
 _atom_site_occupancy
  Fe  Fe0  1  0.000000  0.773967  0.876945  1
  Fe  Fe1  1  0.000000  0.226033  0.123055  1
  Fe  Fe2  1  0.500000  0.273967  0.623055  1
  Fe  Fe3  1  0.500000  0.726033  0.376945  1
  Na  Na4  1  0.000000  0.258316  0.751437  1
  Na  Na5  1  0.000000  0.741684  0.248563  1
  Na  Na6  1  0.500000  0.758316  0.748563  1
  Na  Na7  1  0.500000  0.241684  0.251437  1
  Na  Na8  1  0.739882  0.500000  0.000000  1
  Na  Na9  1  0.760118  0.000000  0.500000  1
  Na  Na10  1  0.260118  0.500000  0.000000  1
  Na  Na11  1  0.239882  0.000000  0.500000  1
  O  O12  1  0.000000  0.560657  0.774628  1
  O  O13  1  0.000000  0.439343  0.225372  1
  O  O14  1  0.500000  0.060657  0.725372  1
  O  O15  1  0.500000  0.939343  0.274628  1
  O  O16  1  0.755860  0.803603  0.989676  1
  O  O17  1  0.755860  0.196397  0.010324  1
  O  O18  1  0.744140  0.303603  0.510324  1
  O  O19  1  0.744140  0.696397  0.489676  1
  O  O20  1  0.244140  0.196397  0.010324  1
  O  O21  1  0.244140  0.803603  0.989676  1
  O  O22  1  0.255860  0.696397  0.489676  1
  O  O23  1  0.255860  0.303603  0.510324  1
  O  O24  1  0.000000  0.951629  0.722905  1
  O  O25  1  0.000000  0.048371  0.277095  1
  O  O26  1  0.500000  0.451629  0.777095  1
  O  O27  1  0.500000  0.548371  0.222905  1
  Li  Li28  1  0.756022  0.486135  0.351956  1
  Li  Li29  1  0.756022  0.513865  0.648044  1
  Li  Li30  1  0.743978  0.986135  0.148044  1
  Li  Li31  1  0.743978  0.013865  0.851956  1
  Li  Li32  1  0.243978  0.513865  0.648044  1
  Li  Li33  1  0.243978  0.486135  0.351956  1
  Li  Li34  1  0.256022  0.013865  0.851956  1
  Li  Li35  1  0.256022  0.986135  0.148044  1
  Li  Li36  1  0.000000  0.267883  0.415538  1
  Li  Li37  1  0.000000  0.732117  0.584462  1
  Li  Li38  1  0.500000  0.767883  0.084462  1
  Li  Li39  1  0.500000  0.232117  0.915538  1
