# generated using pymatgen
data_LiW6CCl18
_symmetry_space_group_name_H-M   'P 1'
_cell_length_a   9.22187095
_cell_length_b   9.22187111
_cell_length_c   17.47511838
_cell_angle_alpha   90.00000000
_cell_angle_beta   90.00000000
_cell_angle_gamma   119.99999947
_symmetry_Int_Tables_number   1
_chemical_formula_structural   LiW6CCl18
_chemical_formula_sum   'Li2 W12 C2 Cl36'
_cell_volume   1287.03052880
_cell_formula_units_Z   2
loop_
 _symmetry_equiv_pos_site_id
 _symmetry_equiv_pos_as_xyz
  1  'x, y, z'
loop_
 _atom_site_type_symbol
 _atom_site_label
 _atom_site_symmetry_multiplicity
 _atom_site_fract_x
 _atom_site_fract_y
 _atom_site_fract_z
 _atom_site_occupancy
  Li  Li0  1  0.000000  0.000000  0.000000  1
  Li  Li1  1  0.000000  0.000000  0.500000  1
  W  W2  1  0.521469  0.702491  0.166889  1
  W  W3  1  0.702491  0.181022  0.666889  1
  W  W4  1  0.478531  0.297509  0.666889  1
  W  W5  1  0.478531  0.297509  0.833111  1
  W  W6  1  0.818978  0.521469  0.666889  1
  W  W7  1  0.181022  0.478531  0.166889  1
  W  W8  1  0.297509  0.818978  0.333111  1
  W  W9  1  0.297509  0.818978  0.166889  1
  W  W10  1  0.818978  0.521469  0.833111  1
  W  W11  1  0.181022  0.478531  0.333111  1
  W  W12  1  0.702491  0.181022  0.833111  1
  W  W13  1  0.521469  0.702491  0.333111  1
  C  C14  1  0.666667  0.333333  0.750000  1
  C  C15  1  0.333333  0.666667  0.250000  1
  Cl  Cl16  1  0.377093  0.477291  0.422283  1
  Cl  Cl17  1  0.225919  0.249449  0.597692  1
  Cl  Cl18  1  0.750551  0.976470  0.902308  1
  Cl  Cl19  1  0.209135  0.280931  0.250000  1
  Cl  Cl20  1  0.377093  0.477291  0.077717  1
  Cl  Cl21  1  0.578664  0.522357  0.250000  1
  Cl  Cl22  1  0.522357  0.943693  0.750000  1
  Cl  Cl23  1  0.622907  0.522709  0.577717  1
  Cl  Cl24  1  0.774081  0.750551  0.402308  1
  Cl  Cl25  1  0.899802  0.377093  0.922283  1
  Cl  Cl26  1  0.421336  0.477643  0.750000  1
  Cl  Cl27  1  0.928204  0.209135  0.750000  1
  Cl  Cl28  1  0.100198  0.622907  0.422283  1
  Cl  Cl29  1  0.522709  0.899802  0.077717  1
  Cl  Cl30  1  0.056307  0.578664  0.750000  1
  Cl  Cl31  1  0.249449  0.023530  0.402308  1
  Cl  Cl32  1  0.023530  0.774081  0.902308  1
  Cl  Cl33  1  0.790865  0.719069  0.750000  1
  Cl  Cl34  1  0.249449  0.023530  0.097692  1
  Cl  Cl35  1  0.071796  0.790865  0.250000  1
  Cl  Cl36  1  0.477643  0.056307  0.250000  1
  Cl  Cl37  1  0.899802  0.377093  0.577717  1
  Cl  Cl38  1  0.477291  0.100198  0.577717  1
  Cl  Cl39  1  0.023530  0.774081  0.597692  1
  Cl  Cl40  1  0.719069  0.928204  0.250000  1
  Cl  Cl41  1  0.622907  0.522709  0.922283  1
  Cl  Cl42  1  0.976470  0.225919  0.097692  1
  Cl  Cl43  1  0.477291  0.100198  0.922283  1
  Cl  Cl44  1  0.943693  0.421336  0.250000  1
  Cl  Cl45  1  0.750551  0.976470  0.597692  1
  Cl  Cl46  1  0.225919  0.249449  0.902308  1
  Cl  Cl47  1  0.976470  0.225919  0.402308  1
  Cl  Cl48  1  0.774081  0.750551  0.097692  1
  Cl  Cl49  1  0.280931  0.071796  0.750000  1
  Cl  Cl50  1  0.522709  0.899802  0.422283  1
  Cl  Cl51  1  0.100198  0.622907  0.077717  1
