# generated using pymatgen
data_LiNi(PS3)2
_symmetry_space_group_name_H-M   'P 1'
_cell_length_a   5.86511219
_cell_length_b   5.89583904
_cell_length_c   6.96370072
_cell_angle_alpha   82.41561023
_cell_angle_beta   74.61191688
_cell_angle_gamma   60.17224965
_symmetry_Int_Tables_number   1
_chemical_formula_structural   LiNi(PS3)2
_chemical_formula_sum   'Li1 Ni1 P2 S6'
_cell_volume   201.41357958
_cell_formula_units_Z   1
loop_
 _symmetry_equiv_pos_site_id
 _symmetry_equiv_pos_as_xyz
  1  'x, y, z'
loop_
 _atom_site_type_symbol
 _atom_site_label
 _atom_site_symmetry_multiplicity
 _atom_site_fract_x
 _atom_site_fract_y
 _atom_site_fract_z
 _atom_site_occupancy
  Li  Li0  1  0.666679  0.666642  0.000000  1
  Ni  Ni1  1  0.334913  0.330173  0.000000  1
  P  P2  1  0.054301  0.998672  0.837762  1
  P  P3  1  0.947027  0.998672  0.162238  1
  S  S4  1  0.396214  0.648419  0.763939  1
  S  S5  1  0.107455  0.321706  0.770728  1
  S  S6  1  0.570839  0.321706  0.229272  1
  S  S7  1  0.955367  0.648419  0.236061  1
  S  S8  1  0.244002  0.032796  0.235676  1
  S  S9  1  0.723202  0.032796  0.764324  1
