# generated using pymatgen
data_Co3(PO4)4
_symmetry_space_group_name_H-M   'P 1'
_cell_length_a   7.83170734
_cell_length_b   7.76350830
_cell_length_c   5.11824818
_cell_angle_alpha   92.12246174
_cell_angle_beta   94.20080657
_cell_angle_gamma   85.03907289
_symmetry_Int_Tables_number   1
_chemical_formula_structural   Co3(PO4)4
_chemical_formula_sum   'Co3 P4 O16'
_cell_volume   309.05096070
_cell_formula_units_Z   1
loop_
 _symmetry_equiv_pos_site_id
 _symmetry_equiv_pos_as_xyz
  1  'x, y, z'
loop_
 _atom_site_type_symbol
 _atom_site_label
 _atom_site_symmetry_multiplicity
 _atom_site_fract_x
 _atom_site_fract_y
 _atom_site_fract_z
 _atom_site_occupancy
  Co  Co0  1  0.470651  0.478057  0.989651  1
  Co  Co1  1  0.912458  0.640969  0.396994  1
  Co  Co2  1  0.017252  0.030146  0.497373  1
  P  P3  1  0.297912  0.685489  0.464440  1
  P  P4  1  0.202716  0.186882  0.029678  1
  P  P5  1  0.805183  0.814815  0.967717  1
  P  P6  1  0.689832  0.321919  0.518286  1
  O  O7  1  0.256374  0.359841  0.946296  1
  O  O8  1  0.939917  0.854083  0.210858  1
  O  O9  1  0.655554  0.946673  0.933396  1
  O  O10  1  0.141153  0.569838  0.433494  1
  O  O11  1  0.607791  0.324230  0.788205  1
  O  O12  1  0.423828  0.627366  0.693483  1
  O  O13  1  0.387972  0.664377  0.201944  1
  O  O14  1  0.548191  0.351635  0.297906  1
  O  O15  1  0.065801  0.125723  0.817999  1
  O  O16  1  0.782419  0.142496  0.473988  1
  O  O17  1  0.818692  0.464580  0.554917  1
  O  O18  1  0.763487  0.635858  0.081268  1
  O  O19  1  0.350457  0.046328  0.090551  1
  O  O20  1  0.110751  0.196896  0.289707  1
  O  O21  1  0.902934  0.792357  0.711525  1
  O  O22  1  0.236715  0.876720  0.503687  1
