# generated using pymatgen
data_LiCa9Mn(PO4)7
_symmetry_space_group_name_H-M   'P 1'
_cell_length_a   13.90664908
_cell_length_b   13.90664901
_cell_length_c   13.90664857
_cell_angle_alpha   44.09217843
_cell_angle_beta   44.09217873
_cell_angle_gamma   44.09217979
_symmetry_Int_Tables_number   1
_chemical_formula_structural   LiCa9Mn(PO4)7
_chemical_formula_sum   'Li2 Ca18 Mn2 P14 O56'
_cell_volume   1182.91555648
_cell_formula_units_Z   2
loop_
 _symmetry_equiv_pos_site_id
 _symmetry_equiv_pos_as_xyz
  1  'x, y, z'
loop_
 _atom_site_type_symbol
 _atom_site_label
 _atom_site_symmetry_multiplicity
 _atom_site_fract_x
 _atom_site_fract_y
 _atom_site_fract_z
 _atom_site_occupancy
  Li  Li0  1  0.178040  0.178040  0.178040  1
  Li  Li1  1  0.678040  0.678040  0.678040  1
  Ca  Ca2  1  0.565028  0.576692  0.160077  1
  Ca  Ca3  1  0.906784  0.934405  0.353298  1
  Ca  Ca4  1  0.934405  0.353298  0.906784  1
  Ca  Ca5  1  0.949941  0.558737  0.969632  1
  Ca  Ca6  1  0.076692  0.065028  0.660077  1
  Ca  Ca7  1  0.969632  0.949941  0.558737  1
  Ca  Ca8  1  0.058737  0.449941  0.469632  1
  Ca  Ca9  1  0.353298  0.906784  0.934405  1
  Ca  Ca10  1  0.853298  0.434405  0.406784  1
  Ca  Ca11  1  0.160077  0.565028  0.576692  1
  Ca  Ca12  1  0.576692  0.160077  0.565028  1
  Ca  Ca13  1  0.406784  0.853298  0.434405  1
  Ca  Ca14  1  0.469632  0.058737  0.449941  1
  Ca  Ca15  1  0.449941  0.469632  0.058737  1
  Ca  Ca16  1  0.065028  0.660077  0.076692  1
  Ca  Ca17  1  0.434405  0.406784  0.853298  1
  Ca  Ca18  1  0.660077  0.076692  0.065028  1
  Ca  Ca19  1  0.558737  0.969632  0.949941  1
  Mn  Mn20  1  0.002046  0.002046  0.002046  1
  Mn  Mn21  1  0.502046  0.502046  0.502046  1
  P  P22  1  0.686332  0.725641  0.186173  1
  P  P23  1  0.186332  0.686173  0.225641  1
  P  P24  1  0.830691  0.305544  0.268727  1
  P  P25  1  0.768727  0.805544  0.330691  1
  P  P26  1  0.186173  0.686332  0.725641  1
  P  P27  1  0.686173  0.225641  0.186332  1
  P  P28  1  0.725641  0.186173  0.686332  1
  P  P29  1  0.225641  0.186332  0.686173  1
  P  P30  1  0.766868  0.766868  0.766868  1
  P  P31  1  0.268727  0.830691  0.305544  1
  P  P32  1  0.805544  0.330691  0.768727  1
  P  P33  1  0.266868  0.266868  0.266868  1
  P  P34  1  0.305544  0.268727  0.830691  1
  P  P35  1  0.330691  0.768727  0.805544  1
  O  O36  1  0.615161  0.189167  0.172566  1
  O  O37  1  0.672566  0.689167  0.115161  1
  O  O38  1  0.089555  0.646194  0.398510  1
  O  O39  1  0.869140  0.875769  0.155699  1
  O  O40  1  0.369140  0.655699  0.375769  1
  O  O41  1  0.646194  0.398510  0.089555  1
  O  O42  1  0.621965  0.638075  0.363091  1
  O  O43  1  0.375769  0.369140  0.655699  1
  O  O44  1  0.345325  0.881499  0.132598  1
  O  O45  1  0.248701  0.932832  0.337245  1
  O  O46  1  0.111707  0.394409  0.254920  1
  O  O47  1  0.254920  0.111707  0.394409  1
  O  O48  1  0.607731  0.892794  0.338231  1
  O  O49  1  0.845325  0.632598  0.381499  1
  O  O50  1  0.337245  0.248701  0.932832  1
  O  O51  1  0.837245  0.432832  0.748701  1
  O  O52  1  0.146194  0.589555  0.898510  1
  O  O53  1  0.589555  0.898510  0.146194  1
  O  O54  1  0.632598  0.381499  0.845325  1
  O  O55  1  0.124987  0.857138  0.672042  1
  O  O56  1  0.892794  0.338231  0.607731  1
  O  O57  1  0.308194  0.308194  0.308194  1
  O  O58  1  0.838231  0.392794  0.107731  1
  O  O59  1  0.624987  0.172042  0.357138  1
  O  O60  1  0.381499  0.845325  0.632598  1
  O  O61  1  0.432832  0.748701  0.837245  1
  O  O62  1  0.121965  0.863091  0.138075  1
  O  O63  1  0.894409  0.611707  0.754920  1
  O  O64  1  0.107731  0.838231  0.392794  1
  O  O65  1  0.689167  0.115161  0.672566  1
  O  O66  1  0.881499  0.132598  0.345325  1
  O  O67  1  0.655699  0.375769  0.369140  1
  O  O68  1  0.898510  0.146194  0.589555  1
  O  O69  1  0.338231  0.607731  0.892794  1
  O  O70  1  0.398510  0.089555  0.646194  1
  O  O71  1  0.394409  0.254920  0.111707  1
  O  O72  1  0.363091  0.621965  0.638075  1
  O  O73  1  0.132598  0.345325  0.881499  1
  O  O74  1  0.172042  0.357138  0.624987  1
  O  O75  1  0.189167  0.172566  0.615161  1
  O  O76  1  0.172566  0.615161  0.189167  1
  O  O77  1  0.857138  0.672042  0.124987  1
  O  O78  1  0.155699  0.869140  0.875769  1
  O  O79  1  0.115161  0.672566  0.689167  1
  O  O80  1  0.875769  0.155699  0.869140  1
  O  O81  1  0.754920  0.894409  0.611707  1
  O  O82  1  0.748701  0.837245  0.432832  1
  O  O83  1  0.611707  0.754920  0.894409  1
  O  O84  1  0.638075  0.363091  0.621965  1
  O  O85  1  0.392794  0.107731  0.838231  1
  O  O86  1  0.357138  0.624987  0.172042  1
  O  O87  1  0.672042  0.124987  0.857138  1
  O  O88  1  0.932832  0.337245  0.248701  1
  O  O89  1  0.138075  0.121965  0.863091  1
  O  O90  1  0.863091  0.138075  0.121965  1
  O  O91  1  0.808194  0.808194  0.808194  1
