# generated using pymatgen
data_Mn4(PO4)3
_symmetry_space_group_name_H-M   'P 1'
_cell_length_a   6.40043475
_cell_length_b   16.41284833
_cell_length_c   9.98165856
_cell_angle_alpha   90.00000000
_cell_angle_beta   90.00000000
_cell_angle_gamma   90.00000000
_symmetry_Int_Tables_number   1
_chemical_formula_structural   Mn4(PO4)3
_chemical_formula_sum   'Mn16 P12 O48'
_cell_volume   1048.56689136
_cell_formula_units_Z   4
loop_
 _symmetry_equiv_pos_site_id
 _symmetry_equiv_pos_as_xyz
  1  'x, y, z'
loop_
 _atom_site_type_symbol
 _atom_site_label
 _atom_site_symmetry_multiplicity
 _atom_site_fract_x
 _atom_site_fract_y
 _atom_site_fract_z
 _atom_site_occupancy
  Mn  Mn0  1  0.000000  0.094236  0.548680  1
  Mn  Mn1  1  0.000000  0.139155  0.987339  1
  Mn  Mn2  1  0.000000  0.860845  0.012661  1
  Mn  Mn3  1  0.000000  0.905764  0.451320  1
  Mn  Mn4  1  0.247254  0.298916  0.759452  1
  Mn  Mn5  1  0.247254  0.701084  0.240548  1
  Mn  Mn6  1  0.252746  0.201084  0.259452  1
  Mn  Mn7  1  0.252746  0.798916  0.740548  1
  Mn  Mn8  1  0.500000  0.360845  0.487339  1
  Mn  Mn9  1  0.500000  0.405764  0.048680  1
  Mn  Mn10  1  0.500000  0.594236  0.951320  1
  Mn  Mn11  1  0.500000  0.639155  0.512661  1
  Mn  Mn12  1  0.747254  0.201084  0.259452  1
  Mn  Mn13  1  0.747254  0.798916  0.740548  1
  Mn  Mn14  1  0.752746  0.298916  0.759452  1
  Mn  Mn15  1  0.752746  0.701084  0.240548  1
  O  O16  1  0.000000  0.017614  0.372888  1
  O  O17  1  0.000000  0.051390  0.846417  1
  O  O18  1  0.000000  0.185164  0.415492  1
  O  O19  1  0.000000  0.251332  0.124635  1
  O  O20  1  0.000000  0.274786  0.622220  1
  O  O21  1  0.000000  0.322816  0.897666  1
  O  O22  1  0.000000  0.677184  0.102334  1
  O  O23  1  0.000000  0.725214  0.377780  1
  O  O24  1  0.000000  0.748668  0.875365  1
  O  O25  1  0.000000  0.814836  0.584508  1
  O  O26  1  0.000000  0.948610  0.153583  1
  O  O27  1  0.000000  0.982386  0.627112  1
  O  O28  1  0.191287  0.085907  0.174208  1
  O  O29  1  0.191287  0.914093  0.825792  1
  O  O30  1  0.200397  0.383677  0.093924  1
  O  O31  1  0.200397  0.616323  0.906076  1
  O  O32  1  0.203027  0.313067  0.407963  1
  O  O33  1  0.203027  0.686933  0.592037  1
  O  O34  1  0.296973  0.186933  0.907963  1
  O  O35  1  0.296973  0.813067  0.092037  1
  O  O36  1  0.299603  0.116323  0.593924  1
  O  O37  1  0.299603  0.883677  0.406076  1
  O  O38  1  0.308713  0.414093  0.674208  1
  O  O39  1  0.308713  0.585907  0.325792  1
  O  O40  1  0.500000  0.177184  0.397666  1
  O  O41  1  0.500000  0.225214  0.122220  1
  O  O42  1  0.500000  0.248668  0.624635  1
  O  O43  1  0.500000  0.314836  0.915492  1
  O  O44  1  0.500000  0.448610  0.346417  1
  O  O45  1  0.500000  0.482386  0.872888  1
  O  O46  1  0.500000  0.517614  0.127112  1
  O  O47  1  0.500000  0.551390  0.653583  1
  O  O48  1  0.500000  0.685164  0.084508  1
  O  O49  1  0.500000  0.751332  0.375365  1
  O  O50  1  0.500000  0.774786  0.877780  1
  O  O51  1  0.500000  0.822816  0.602334  1
  O  O52  1  0.691287  0.414093  0.674208  1
  O  O53  1  0.691287  0.585907  0.325792  1
  O  O54  1  0.700397  0.116323  0.593924  1
  O  O55  1  0.700397  0.883677  0.406076  1
  O  O56  1  0.703027  0.186933  0.907963  1
  O  O57  1  0.703027  0.813067  0.092037  1
  O  O58  1  0.796973  0.313067  0.407963  1
  O  O59  1  0.796973  0.686933  0.592037  1
  O  O60  1  0.799603  0.383677  0.093924  1
  O  O61  1  0.799603  0.616323  0.906076  1
  O  O62  1  0.808713  0.085907  0.174208  1
  O  O63  1  0.808713  0.914093  0.825792  1
  P  P64  1  0.000000  0.032737  0.215162  1
  P  P65  1  0.000000  0.279575  0.467204  1
  P  P66  1  0.000000  0.338599  0.052114  1
  P  P67  1  0.000000  0.661401  0.947886  1
  P  P68  1  0.000000  0.720425  0.532796  1
  P  P69  1  0.000000  0.967263  0.784838  1
  P  P70  1  0.500000  0.161401  0.552114  1
  P  P71  1  0.500000  0.220425  0.967204  1
  P  P72  1  0.500000  0.467263  0.715162  1
  P  P73  1  0.500000  0.532737  0.284838  1
  P  P74  1  0.500000  0.779575  0.032796  1
  P  P75  1  0.500000  0.838599  0.447886  1
