# generated using pymatgen
data_Co2P3O10
_symmetry_space_group_name_H-M   'P 1'
_cell_length_a   8.07455838
_cell_length_b   7.85636640
_cell_length_c   9.62223459
_cell_angle_alpha   82.54432919
_cell_angle_beta   67.42739681
_cell_angle_gamma   113.24976347
_symmetry_Int_Tables_number   1
_chemical_formula_structural   Co2P3O10
_chemical_formula_sum   'Co4 P6 O20'
_cell_volume   488.58009006
_cell_formula_units_Z   2
loop_
 _symmetry_equiv_pos_site_id
 _symmetry_equiv_pos_as_xyz
  1  'x, y, z'
loop_
 _atom_site_type_symbol
 _atom_site_label
 _atom_site_symmetry_multiplicity
 _atom_site_fract_x
 _atom_site_fract_y
 _atom_site_fract_z
 _atom_site_occupancy
  Co  Co0  1  0.324961  0.733740  0.967675  1
  Co  Co1  1  0.200588  0.285001  0.542423  1
  Co  Co2  1  0.675039  0.266260  0.032325  1
  Co  Co3  1  0.799412  0.714999  0.457577  1
  P  P4  1  0.368914  0.455823  0.767766  1
  P  P5  1  0.673368  0.925383  0.244858  1
  P  P6  1  0.718129  0.130403  0.730808  1
  P  P7  1  0.326632  0.074617  0.755142  1
  P  P8  1  0.631086  0.544177  0.232234  1
  P  P9  1  0.281871  0.869597  0.269192  1
  O  O10  1  0.608658  0.918082  0.843782  1
  O  O11  1  0.780789  0.124158  0.116645  1
  O  O12  1  0.743960  0.276354  0.825456  1
  O  O13  1  0.275109  0.508020  0.919523  1
  O  O14  1  0.255297  0.082543  0.633098  1
  O  O15  1  0.256040  0.723646  0.174544  1
  O  O16  1  0.694792  0.773601  0.151959  1
  O  O17  1  0.916287  0.186747  0.586655  1
  O  O18  1  0.263363  0.458190  0.667573  1
  O  O19  1  0.744703  0.917457  0.366902  1
  O  O20  1  0.724891  0.491980  0.080477  1
  O  O21  1  0.430223  0.849849  0.338428  1
  O  O22  1  0.305208  0.226399  0.848041  1
  O  O23  1  0.083713  0.813253  0.413345  1
  O  O24  1  0.398988  0.426522  0.317581  1
  O  O25  1  0.219211  0.875842  0.883355  1
  O  O26  1  0.601012  0.573478  0.682419  1
  O  O27  1  0.736637  0.541810  0.332427  1
  O  O28  1  0.391342  0.081918  0.156218  1
  O  O29  1  0.569777  0.150151  0.661572  1
