# generated using pymatgen
data_Ni6P7O24
_symmetry_space_group_name_H-M   'P 1'
_cell_length_a   5.24866918
_cell_length_b   26.39932306
_cell_length_c   6.38973510
_cell_angle_alpha   90.00000000
_cell_angle_beta   107.20320917
_cell_angle_gamma   90.00000000
_symmetry_Int_Tables_number   1
_chemical_formula_structural   Ni6P7O24
_chemical_formula_sum   'Ni12 P14 O48'
_cell_volume   845.76022246
_cell_formula_units_Z   2
loop_
 _symmetry_equiv_pos_site_id
 _symmetry_equiv_pos_as_xyz
  1  'x, y, z'
loop_
 _atom_site_type_symbol
 _atom_site_label
 _atom_site_symmetry_multiplicity
 _atom_site_fract_x
 _atom_site_fract_y
 _atom_site_fract_z
 _atom_site_occupancy
  Ni  Ni0  1  0.202119  0.098347  0.088428  1
  Ni  Ni1  1  0.119717  0.813915  0.274273  1
  Ni  Ni2  1  0.807390  0.451242  0.310188  1
  Ni  Ni3  1  0.807390  0.048758  0.310188  1
  Ni  Ni4  1  0.797881  0.901653  0.911572  1
  Ni  Ni5  1  0.119717  0.686085  0.274273  1
  Ni  Ni6  1  0.880283  0.313915  0.725727  1
  Ni  Ni7  1  0.880283  0.186085  0.725727  1
  Ni  Ni8  1  0.192610  0.548758  0.689812  1
  Ni  Ni9  1  0.797881  0.598347  0.911572  1
  Ni  Ni10  1  0.202119  0.401653  0.088428  1
  Ni  Ni11  1  0.192610  0.951242  0.689812  1
  P  P12  1  0.684029  0.889469  0.381822  1
  P  P13  1  0.684029  0.610531  0.381822  1
  P  P14  1  0.245708  0.831891  0.803661  1
  P  P15  1  0.290876  0.524039  0.204989  1
  P  P16  1  0.543133  0.750000  0.098881  1
  P  P17  1  0.754292  0.331891  0.196339  1
  P  P18  1  0.315971  0.110531  0.618178  1
  P  P19  1  0.709124  0.024039  0.795011  1
  P  P20  1  0.754292  0.168109  0.196339  1
  P  P21  1  0.709124  0.475961  0.795011  1
  P  P22  1  0.315971  0.389469  0.618178  1
  P  P23  1  0.245708  0.668109  0.803661  1
  P  P24  1  0.290876  0.975961  0.204989  1
  P  P25  1  0.456867  0.250000  0.901119  1
  O  O26  1  0.161855  0.250000  0.783937  1
  O  O27  1  0.838145  0.750000  0.216063  1
  O  O28  1  0.657325  0.250000  0.771256  1
  O  O29  1  0.551853  0.557484  0.286749  1
  O  O30  1  0.394889  0.881845  0.787932  1
  O  O31  1  0.861313  0.904934  0.612062  1
  O  O32  1  0.940192  0.336872  0.050268  1
  O  O33  1  0.878492  0.451909  0.011527  1
  O  O34  1  0.857091  0.876986  0.231362  1
  O  O35  1  0.587062  0.527345  0.828702  1
  O  O36  1  0.059808  0.836872  0.949732  1
  O  O37  1  0.142909  0.376986  0.768638  1
  O  O38  1  0.940192  0.163128  0.050268  1
  O  O39  1  0.140149  0.976971  0.376108  1
  O  O40  1  0.478154  0.850496  0.384381  1
  O  O41  1  0.059808  0.663128  0.949732  1
  O  O42  1  0.494533  0.702681  0.939569  1
  O  O43  1  0.521846  0.149504  0.615619  1
  O  O44  1  0.505467  0.297319  0.060431  1
  O  O45  1  0.342675  0.750000  0.228744  1
  O  O46  1  0.886403  0.192885  0.413279  1
  O  O47  1  0.605111  0.118155  0.212068  1
  O  O48  1  0.859851  0.023029  0.623893  1
  O  O49  1  0.505467  0.202681  0.060431  1
  O  O50  1  0.494533  0.797319  0.939569  1
  O  O51  1  0.121508  0.548091  0.988473  1
  O  O52  1  0.412938  0.027345  0.171298  1
  O  O53  1  0.886403  0.307115  0.413279  1
  O  O54  1  0.478154  0.649504  0.384381  1
  O  O55  1  0.140149  0.523029  0.376108  1
  O  O56  1  0.142909  0.123014  0.768638  1
  O  O57  1  0.394889  0.618155  0.787932  1
  O  O58  1  0.121508  0.951909  0.988473  1
  O  O59  1  0.551853  0.942516  0.286749  1
  O  O60  1  0.138687  0.404934  0.387938  1
  O  O61  1  0.412938  0.472655  0.171298  1
  O  O62  1  0.859851  0.476971  0.623893  1
  O  O63  1  0.521846  0.350496  0.615619  1
  O  O64  1  0.113597  0.807115  0.586721  1
  O  O65  1  0.857091  0.623014  0.231362  1
  O  O66  1  0.448147  0.057484  0.713251  1
  O  O67  1  0.878492  0.048091  0.011527  1
  O  O68  1  0.587062  0.972655  0.828702  1
  O  O69  1  0.113597  0.692885  0.586721  1
  O  O70  1  0.605111  0.381845  0.212068  1
  O  O71  1  0.448147  0.442516  0.713251  1
  O  O72  1  0.861313  0.595066  0.612062  1
  O  O73  1  0.138687  0.095066  0.387938  1
