# generated using pymatgen
data_MgVO3
_symmetry_space_group_name_H-M   'P 1'
_cell_length_a   5.33061902
_cell_length_b   5.30256117
_cell_length_c   5.79208866
_cell_angle_alpha   90.00000000
_cell_angle_beta   117.39768450
_cell_angle_gamma   90.00000000
_symmetry_Int_Tables_number   1
_chemical_formula_structural   MgVO3
_chemical_formula_sum   'Mg2 V2 O6'
_cell_volume   145.35510736
_cell_formula_units_Z   2
loop_
 _symmetry_equiv_pos_site_id
 _symmetry_equiv_pos_as_xyz
  1  'x, y, z'
loop_
 _atom_site_type_symbol
 _atom_site_label
 _atom_site_symmetry_multiplicity
 _atom_site_fract_x
 _atom_site_fract_y
 _atom_site_fract_z
 _atom_site_occupancy
  Mg  Mg0  1  0.575383  0.010469  0.150766  1
  Mg  Mg1  1  0.424617  0.510469  0.849234  1
  V  V2  1  0.929795  0.012656  0.859589  1
  V  V3  1  0.070205  0.512656  0.140411  1
  O  O4  1  0.239893  0.261419  0.001806  1
  O  O5  1  0.760107  0.761419  0.998194  1
  O  O6  1  0.761913  0.261419  0.001806  1
  O  O7  1  0.238087  0.761419  0.998194  1
  O  O8  1  0.765565  0.018039  0.531129  1
  O  O9  1  0.234435  0.518039  0.468871  1
