# generated using pymatgen
data_CuO2
_symmetry_space_group_name_H-M   'P 1'
_cell_length_a   5.83268741
_cell_length_b   5.83268703
_cell_length_c   5.82889683
_cell_angle_alpha   119.97849964
_cell_angle_beta   119.97850907
_cell_angle_gamma   90.01143082
_symmetry_Int_Tables_number   1
_chemical_formula_structural   CuO2
_chemical_formula_sum   'Cu4 O8'
_cell_volume   140.29670823
_cell_formula_units_Z   4
loop_
 _symmetry_equiv_pos_site_id
 _symmetry_equiv_pos_as_xyz
  1  'x, y, z'
loop_
 _atom_site_type_symbol
 _atom_site_label
 _atom_site_symmetry_multiplicity
 _atom_site_fract_x
 _atom_site_fract_y
 _atom_site_fract_z
 _atom_site_occupancy
  Cu  Cu0  1  0.500000  0.500001  0.000001  1
  Cu  Cu1  1  0.000001  0.000000  0.500000  1
  Cu  Cu2  1  0.000002  0.500001  0.000001  1
  Cu  Cu3  1  0.000000  0.500001  0.500001  1
  O  O4  1  0.765099  0.734901  0.030524  1
  O  O5  1  0.204208  0.735014  0.469611  1
  O  O6  1  0.234901  0.265099  0.969475  1
  O  O7  1  0.235015  0.704208  0.969611  1
  O  O8  1  0.795793  0.264986  0.530389  1
  O  O9  1  0.234901  0.265099  0.530524  1
  O  O10  1  0.764987  0.295791  0.030389  1
  O  O11  1  0.765101  0.734901  0.469477  1
