# generated using pymatgen
data_Li2Co(PO4)2
_symmetry_space_group_name_H-M   'P 1'
_cell_length_a   8.40761485
_cell_length_b   10.58805158
_cell_length_c   8.29255757
_cell_angle_alpha   89.75986051
_cell_angle_beta   103.72633746
_cell_angle_gamma   89.84880378
_symmetry_Int_Tables_number   1
_chemical_formula_structural   Li2Co(PO4)2
_chemical_formula_sum   'Li8 Co4 P8 O32'
_cell_volume   717.11127015
_cell_formula_units_Z   4
loop_
 _symmetry_equiv_pos_site_id
 _symmetry_equiv_pos_as_xyz
  1  'x, y, z'
loop_
 _atom_site_type_symbol
 _atom_site_label
 _atom_site_symmetry_multiplicity
 _atom_site_fract_x
 _atom_site_fract_y
 _atom_site_fract_z
 _atom_site_occupancy
  Li  Li0  1  0.776893  0.565935  0.560818  1
  Li  Li1  1  0.282541  0.939242  0.554612  1
  Li  Li2  1  0.099250  0.669720  0.614730  1
  Li  Li3  1  0.828569  0.852140  0.363633  1
  Li  Li4  1  0.412771  0.171312  0.379650  1
  Li  Li5  1  0.895447  0.323030  0.392930  1
  Li  Li6  1  0.218636  0.431686  0.448133  1
  Li  Li7  1  0.596084  0.830451  0.619992  1
  Co  Co8  1  0.079624  0.832289  0.093992  1
  Co  Co9  1  0.423553  0.339204  0.911806  1
  Co  Co10  1  0.573421  0.665632  0.095838  1
  Co  Co11  1  0.922257  0.159451  0.890063  1
  P  P12  1  0.529588  0.418270  0.284985  1
  P  P13  1  0.940952  0.597884  0.250374  1
  P  P14  1  0.469281  0.584063  0.719256  1
  P  P15  1  0.055341  0.404829  0.749471  1
  P  P16  1  0.448774  0.904213  0.248069  1
  P  P17  1  0.549710  0.098033  0.756343  1
  P  P18  1  0.971277  0.909393  0.709755  1
  P  P19  1  0.036248  0.080764  0.272633  1
  O  O20  1  0.931386  0.319719  0.819041  1
  O  O21  1  0.459671  0.663847  0.880327  1
  O  O22  1  0.291660  0.876341  0.103868  1
  O  O23  1  0.002549  0.464113  0.281028  1
  O  O24  1  0.564413  0.162552  0.597035  1
  O  O25  1  0.488216  0.963051  0.734900  1
  O  O26  1  0.696899  0.423239  0.405287  1
  O  O27  1  0.218498  0.400069  0.893045  1
  O  O28  1  0.777979  0.605464  0.105378  1
  O  O29  1  0.423264  0.855038  0.412352  1
  O  O30  1  0.113588  0.856496  0.646444  1
  O  O31  1  0.085049  0.345319  0.592768  1
  O  O32  1  0.518979  0.445875  0.785305  1
  O  O33  1  0.963852  0.843382  0.880101  1
  O  O34  1  0.545916  0.341611  0.126114  1
  O  O35  1  0.204767  0.082193  0.390952  1
  O  O36  1  0.299988  0.582641  0.602427  1
  O  O37  1  0.987429  0.538426  0.727220  1
  O  O38  1  0.070442  0.675914  0.180690  1
  O  O39  1  0.603699  0.642002  0.649098  1
  O  O40  1  0.806187  0.888868  0.589142  1
  O  O41  1  0.391875  0.362225  0.351339  1
  O  O42  1  0.427858  0.179890  0.832482  1
  O  O43  1  0.718490  0.103010  0.890528  1
  O  O44  1  0.900581  0.145909  0.330999  1
  O  O45  1  0.001632  0.053389  0.752486  1
  O  O46  1  0.590637  0.821692  0.199227  1
  O  O47  1  0.480192  0.558307  0.219008  1
  O  O48  1  0.908219  0.668635  0.400643  1
  O  O49  1  0.986401  0.935532  0.232653  1
  O  O50  1  0.049780  0.140371  0.100663  1
  O  O51  1  0.492273  0.042125  0.242106  1
