# generated using pymatgen
data_Li2Cr(PO4)2
_symmetry_space_group_name_H-M   'P 1'
_cell_length_a   4.91972730
_cell_length_b   8.61197539
_cell_length_c   6.61727830
_cell_angle_alpha   90.00000000
_cell_angle_beta   95.38074666
_cell_angle_gamma   90.00000000
_symmetry_Int_Tables_number   1
_chemical_formula_structural   Li2Cr(PO4)2
_chemical_formula_sum   'Li4 Cr2 P4 O16'
_cell_volume   279.12920404
_cell_formula_units_Z   2
loop_
 _symmetry_equiv_pos_site_id
 _symmetry_equiv_pos_as_xyz
  1  'x, y, z'
loop_
 _atom_site_type_symbol
 _atom_site_label
 _atom_site_symmetry_multiplicity
 _atom_site_fract_x
 _atom_site_fract_y
 _atom_site_fract_z
 _atom_site_occupancy
  Li  Li0  1  0.508461  0.358362  0.190362  1
  Li  Li1  1  0.991539  0.858362  0.309638  1
  Li  Li2  1  0.498234  0.001240  0.508279  1
  Li  Li3  1  0.001766  0.501240  0.991721  1
  Cr  Cr4  1  0.494607  0.001955  0.992666  1
  Cr  Cr5  1  0.005393  0.501955  0.507334  1
  P  P6  1  0.532007  0.320108  0.725889  1
  P  P7  1  0.468810  0.679089  0.270142  1
  P  P8  1  0.031190  0.179089  0.229858  1
  P  P9  1  0.967993  0.820108  0.774111  1
  O  O10  1  0.826635  0.868990  0.964328  1
  O  O11  1  0.664871  0.390956  0.924092  1
  O  O12  1  0.186036  0.143033  0.042202  1
  O  O13  1  0.433291  0.858151  0.232354  1
  O  O14  1  0.948711  0.640438  0.746996  1
  O  O15  1  0.313964  0.643033  0.457798  1
  O  O16  1  0.272394  0.869654  0.802793  1
  O  O17  1  0.551289  0.140438  0.753004  1
  O  O18  1  0.146631  0.084353  0.412201  1
  O  O19  1  0.673365  0.368990  0.535672  1
  O  O20  1  0.353369  0.584353  0.087799  1
  O  O21  1  0.066709  0.358151  0.267646  1
  O  O22  1  0.779902  0.640771  0.313126  1
  O  O23  1  0.835129  0.890956  0.575908  1
  O  O24  1  0.720098  0.140771  0.186874  1
  O  O25  1  0.227606  0.369654  0.697207  1
