# generated using pymatgen
data_LiSb(PO3)4
_symmetry_space_group_name_H-M   'P 1'
_cell_length_a   7.12874691
_cell_length_b   8.94523400
_cell_length_c   9.10362200
_cell_angle_alpha   114.08273687
_cell_angle_beta   113.04995868
_cell_angle_gamma   66.51766849
_symmetry_Int_Tables_number   1
_chemical_formula_structural   LiSb(PO3)4
_chemical_formula_sum   'Li2 Sb2 P8 O24'
_cell_volume   467.57867168
_cell_formula_units_Z   2
loop_
 _symmetry_equiv_pos_site_id
 _symmetry_equiv_pos_as_xyz
  1  'x, y, z'
loop_
 _atom_site_type_symbol
 _atom_site_label
 _atom_site_symmetry_multiplicity
 _atom_site_fract_x
 _atom_site_fract_y
 _atom_site_fract_z
 _atom_site_occupancy
  Li  Li0  1  0.307444  0.750000  0.750000  1
  Li  Li1  1  0.692556  0.250000  0.250000  1
  O  O2  1  0.403034  0.955394  0.197402  1
  O  O3  1  0.782217  0.919558  0.226085  1
  O  O4  1  0.018187  0.774448  0.023372  1
  O  O5  1  0.175286  0.840706  0.341638  1
  O  O6  1  0.019318  0.913952  0.777854  1
  O  O7  1  0.674354  0.659294  0.158362  1
  O  O8  1  0.769263  0.725552  0.476628  1
  O  O9  1  0.411762  0.701693  0.564145  1
  O  O10  1  0.549310  0.798307  0.935855  1
  O  O11  1  0.475690  0.580442  0.273915  1
  O  O12  1  0.161025  0.544606  0.302598  1
  O  O13  1  0.155415  0.586048  0.722146  1
  O  O14  1  0.844585  0.413952  0.277854  1
  O  O15  1  0.838975  0.455394  0.697402  1
  O  O16  1  0.524310  0.419558  0.726085  1
  O  O17  1  0.450690  0.201693  0.064145  1
  O  O18  1  0.588238  0.298307  0.435855  1
  O  O19  1  0.230737  0.274448  0.523372  1
  O  O20  1  0.325646  0.340706  0.841638  1
  O  O21  1  0.980682  0.086048  0.222146  1
  O  O22  1  0.824714  0.159294  0.658362  1
  O  O23  1  0.981813  0.225552  0.976628  1
  O  O24  1  0.217783  0.080442  0.773915  1
  O  O25  1  0.596966  0.044606  0.802598  1
  P  P26  1  0.994820  0.901565  0.190063  1
  P  P27  1  0.581818  0.841772  0.119577  1
  P  P28  1  0.304013  0.658228  0.380423  1
  P  P29  1  0.706322  0.598435  0.309937  1
  P  P30  1  0.293678  0.401565  0.690063  1
  P  P31  1  0.695987  0.341772  0.619577  1
  P  P32  1  0.418182  0.158228  0.880423  1
  P  P33  1  0.005180  0.098435  0.809937  1
  Sb  Sb34  1  0.826419  0.750000  0.750000  1
  Sb  Sb35  1  0.173581  0.250000  0.250000  1
