# generated using pymatgen
data_K11LiMn4O16
_symmetry_space_group_name_H-M   'P 1'
_cell_length_a   7.96781919
_cell_length_b   7.96781908
_cell_length_c   10.53444438
_cell_angle_alpha   112.22095409
_cell_angle_beta   112.22095377
_cell_angle_gamma   90.00000078
_symmetry_Int_Tables_number   1
_chemical_formula_structural   K11LiMn4O16
_chemical_formula_sum   'K11 Li1 Mn4 O16'
_cell_volume   565.10315404
_cell_formula_units_Z   1
loop_
 _symmetry_equiv_pos_site_id
 _symmetry_equiv_pos_as_xyz
  1  'x, y, z'
loop_
 _atom_site_type_symbol
 _atom_site_label
 _atom_site_symmetry_multiplicity
 _atom_site_fract_x
 _atom_site_fract_y
 _atom_site_fract_z
 _atom_site_occupancy
  K  K0  1  0.291472  0.291472  0.582944  1
  K  K1  1  0.500000  0.000000  0.000000  1
  K  K2  1  0.250000  0.750000  0.500000  1
  K  K3  1  0.927710  0.927710  0.244390  1
  K  K4  1  0.072290  0.683320  0.755610  1
  K  K5  1  0.708528  0.708528  0.417056  1
  K  K6  1  0.000000  0.500000  0.000000  1
  K  K7  1  0.683320  0.072290  0.755610  1
  K  K8  1  0.316680  0.316680  0.244390  1
  K  K9  1  0.750000  0.250000  0.500000  1
  K  K10  1  0.500000  0.500000  0.000000  1
  Li  Li11  1  0.000000  0.000000  0.000000  1
  Mn  Mn12  1  0.866991  0.379988  0.246979  1
  Mn  Mn13  1  0.133009  0.133009  0.753021  1
  Mn  Mn14  1  0.620012  0.620012  0.753021  1
  Mn  Mn15  1  0.379988  0.866991  0.246979  1
  O  O16  1  0.411071  0.014937  0.426007  1
  O  O17  1  0.797469  0.797469  0.886496  1
  O  O18  1  0.645109  0.334778  0.227370  1
  O  O19  1  0.334778  0.645109  0.227370  1
  O  O20  1  0.014937  0.411071  0.426007  1
  O  O21  1  0.582262  0.892593  0.227370  1
  O  O22  1  0.354891  0.107407  0.772630  1
  O  O23  1  0.202531  0.910973  0.113504  1
  O  O24  1  0.588929  0.588929  0.573993  1
  O  O25  1  0.089027  0.089027  0.886496  1
  O  O26  1  0.665223  0.417738  0.772630  1
  O  O27  1  0.985063  0.985063  0.573993  1
  O  O28  1  0.892593  0.582262  0.227370  1
  O  O29  1  0.910973  0.202531  0.113504  1
  O  O30  1  0.107407  0.354891  0.772630  1
  O  O31  1  0.417738  0.665223  0.772630  1
