# generated using pymatgen
data_Rb5LiSi2NiO8
_symmetry_space_group_name_H-M   'P 1'
_cell_length_a   6.80816866
_cell_length_b   6.80816806
_cell_length_c   13.94309578
_cell_angle_alpha   97.33636255
_cell_angle_beta   97.33636193
_cell_angle_gamma   99.87261726
_symmetry_Int_Tables_number   1
_chemical_formula_structural   Rb5LiSi2NiO8
_chemical_formula_sum   'Rb10 Li2 Si4 Ni2 O16'
_cell_volume   624.05185681
_cell_formula_units_Z   2
loop_
 _symmetry_equiv_pos_site_id
 _symmetry_equiv_pos_as_xyz
  1  'x, y, z'
loop_
 _atom_site_type_symbol
 _atom_site_label
 _atom_site_symmetry_multiplicity
 _atom_site_fract_x
 _atom_site_fract_y
 _atom_site_fract_z
 _atom_site_occupancy
  Rb  Rb0  1  0.366440  0.633560  0.250000  1
  Rb  Rb1  1  0.539863  0.906364  0.850435  1
  Rb  Rb2  1  0.633560  0.366440  0.750000  1
  Rb  Rb3  1  0.460137  0.093636  0.149565  1
  Rb  Rb4  1  0.256324  0.958762  0.572198  1
  Rb  Rb5  1  0.906364  0.539863  0.350435  1
  Rb  Rb6  1  0.041238  0.743676  0.927802  1
  Rb  Rb7  1  0.958762  0.256324  0.072198  1
  Rb  Rb8  1  0.093636  0.460137  0.649565  1
  Rb  Rb9  1  0.743676  0.041238  0.427802  1
  Li  Li10  1  0.960110  0.039890  0.750000  1
  Li  Li11  1  0.039890  0.960110  0.250000  1
  Si  Si12  1  0.781134  0.720600  0.129826  1
  Si  Si13  1  0.279400  0.218866  0.370174  1
  Si  Si14  1  0.218866  0.279400  0.870174  1
  Si  Si15  1  0.720600  0.781134  0.629826  1
  Ni  Ni16  1  0.500000  0.500000  0.000000  1
  Ni  Ni17  1  0.500000  0.500000  0.500000  1
  O  O18  1  0.661383  0.480122  0.120507  1
  O  O19  1  0.140545  0.254611  0.270871  1
  O  O20  1  0.254611  0.140545  0.770871  1
  O  O21  1  0.340933  0.229388  0.973958  1
  O  O22  1  0.659067  0.770612  0.026042  1
  O  O23  1  0.745390  0.859455  0.229129  1
  O  O24  1  0.480122  0.661383  0.620507  1
  O  O25  1  0.973549  0.249844  0.867818  1
  O  O26  1  0.750156  0.026451  0.632182  1
  O  O27  1  0.338617  0.519878  0.879493  1
  O  O28  1  0.859455  0.745390  0.729129  1
  O  O29  1  0.249844  0.973549  0.367818  1
  O  O30  1  0.229388  0.340933  0.473958  1
  O  O31  1  0.026451  0.750156  0.132182  1
  O  O32  1  0.519878  0.338617  0.379493  1
  O  O33  1  0.770612  0.659067  0.526042  1
