# generated using pymatgen
data_Ni3P3O11
_symmetry_space_group_name_H-M   'P 1'
_cell_length_a   9.77824887
_cell_length_b   9.47269471
_cell_length_c   9.91411698
_cell_angle_alpha   90.00000000
_cell_angle_beta   62.55438896
_cell_angle_gamma   90.00000000
_symmetry_Int_Tables_number   1
_chemical_formula_structural   Ni3P3O11
_chemical_formula_sum   'Ni12 P12 O44'
_cell_volume   814.95185230
_cell_formula_units_Z   4
loop_
 _symmetry_equiv_pos_site_id
 _symmetry_equiv_pos_as_xyz
  1  'x, y, z'
loop_
 _atom_site_type_symbol
 _atom_site_label
 _atom_site_symmetry_multiplicity
 _atom_site_fract_x
 _atom_site_fract_y
 _atom_site_fract_z
 _atom_site_occupancy
  Ni  Ni0  1  0.680723  0.373694  0.235940  1
  Ni  Ni1  1  0.358542  0.133105  0.373726  1
  Ni  Ni2  1  0.319277  0.626306  0.764060  1
  Ni  Ni3  1  0.491871  0.363440  0.605863  1
  Ni  Ni4  1  0.180723  0.126306  0.735940  1
  Ni  Ni5  1  0.641458  0.866895  0.626274  1
  Ni  Ni6  1  0.991871  0.136560  0.105862  1
  Ni  Ni7  1  0.008129  0.863440  0.894137  1
  Ni  Ni8  1  0.141458  0.633105  0.126274  1
  Ni  Ni9  1  0.508129  0.636560  0.394137  1
  Ni  Ni10  1  0.858542  0.366895  0.873726  1
  Ni  Ni11  1  0.819277  0.873694  0.264060  1
  P  P12  1  0.311248  0.919337  0.921968  1
  P  P13  1  0.681026  0.167239  0.433299  1
  P  P14  1  0.811248  0.580663  0.421968  1
  P  P15  1  0.181026  0.332761  0.933299  1
  P  P16  1  0.318974  0.832761  0.566701  1
  P  P17  1  0.655458  0.555839  0.748798  1
  P  P18  1  0.344542  0.444161  0.251202  1
  P  P19  1  0.688752  0.080663  0.078032  1
  P  P20  1  0.188752  0.419337  0.578032  1
  P  P21  1  0.155458  0.944161  0.248798  1
  P  P22  1  0.844542  0.055839  0.751202  1
  P  P23  1  0.818974  0.667239  0.066701  1
  O  O24  1  0.006027  0.991642  0.239422  1
  O  O25  1  0.340364  0.762638  0.417533  1
  O  O26  1  0.812933  0.970154  0.642144  1
  O  O27  1  0.032581  0.265717  0.924865  1
  O  O28  1  0.289934  0.757649  0.937143  1
  O  O29  1  0.315352  0.269301  0.787847  1
  O  O30  1  0.210066  0.257649  0.562857  1
  O  O31  1  0.040618  0.468869  0.706859  1
  O  O32  1  0.815352  0.230699  0.287847  1
  O  O33  1  0.666869  0.510297  0.411635  1
  O  O34  1  0.137896  0.785265  0.273439  1
  O  O35  1  0.159636  0.262638  0.082467  1
  O  O36  1  0.993973  0.008358  0.760578  1
  O  O37  1  0.312933  0.529846  0.142144  1
  O  O38  1  0.967419  0.734283  0.075135  1
  O  O39  1  0.202763  0.475598  0.420455  1
  O  O40  1  0.532581  0.234283  0.424865  1
  O  O41  1  0.180548  0.494270  0.938489  1
  O  O42  1  0.459382  0.968869  0.793141  1
  O  O43  1  0.319452  0.994270  0.561511  1
  O  O44  1  0.493973  0.491642  0.260578  1
  O  O45  1  0.862104  0.214735  0.726561  1
  O  O46  1  0.789934  0.742351  0.437143  1
  O  O47  1  0.833131  0.010297  0.088365  1
  O  O48  1  0.687067  0.470154  0.857856  1
  O  O49  1  0.819452  0.505730  0.061511  1
  O  O50  1  0.702763  0.024402  0.920455  1
  O  O51  1  0.710066  0.242351  0.062857  1
  O  O52  1  0.184648  0.769301  0.712153  1
  O  O53  1  0.797237  0.524402  0.579545  1
  O  O54  1  0.297237  0.975598  0.079545  1
  O  O55  1  0.333131  0.489703  0.588365  1
  O  O56  1  0.187067  0.029846  0.357856  1
  O  O57  1  0.467419  0.765717  0.575135  1
  O  O58  1  0.637896  0.714735  0.773439  1
  O  O59  1  0.840364  0.737362  0.917533  1
  O  O60  1  0.680548  0.005730  0.438489  1
  O  O61  1  0.506027  0.508358  0.739422  1
  O  O62  1  0.540618  0.031131  0.206859  1
  O  O63  1  0.684648  0.730699  0.212153  1
  O  O64  1  0.959382  0.531131  0.293141  1
  O  O65  1  0.659636  0.237362  0.582467  1
  O  O66  1  0.362104  0.285265  0.226561  1
  O  O67  1  0.166869  0.989703  0.911635  1
