# generated using pymatgen
data_Li9Co3P8O29
_symmetry_space_group_name_H-M   'P 1'
_cell_length_a   9.81204404
_cell_length_b   9.82110791
_cell_length_c   13.74082509
_cell_angle_alpha   90.00126967
_cell_angle_beta   90.62575744
_cell_angle_gamma   120.03146596
_symmetry_Int_Tables_number   1
_chemical_formula_structural   Li9Co3P8O29
_chemical_formula_sum   'Li18 Co6 P16 O58'
_cell_volume   1146.28074205
_cell_formula_units_Z   2
loop_
 _symmetry_equiv_pos_site_id
 _symmetry_equiv_pos_as_xyz
  1  'x, y, z'
loop_
 _atom_site_type_symbol
 _atom_site_label
 _atom_site_symmetry_multiplicity
 _atom_site_fract_x
 _atom_site_fract_y
 _atom_site_fract_z
 _atom_site_occupancy
  Li  Li0  1  0.101448  0.765557  0.936469  1
  Li  Li1  1  0.766527  0.095261  0.564685  1
  Li  Li2  1  0.661510  0.898923  0.936048  1
  Li  Li3  1  0.337961  0.100792  0.063922  1
  Li  Li4  1  0.328852  0.664536  0.120394  1
  Li  Li5  1  0.338489  0.237397  0.563951  1
  Li  Li6  1  0.671258  0.335567  0.879600  1
  Li  Li7  1  0.233487  0.328743  0.935321  1
  Li  Li8  1  0.101606  0.336277  0.436453  1
  Li  Li9  1  0.001205  0.001338  0.499949  1
  Li  Li10  1  0.766514  0.671070  0.064677  1
  Li  Li11  1  0.998571  0.000253  0.000080  1
  Li  Li12  1  0.671155  0.335721  0.379612  1
  Li  Li13  1  0.661945  0.762804  0.436076  1
  Li  Li14  1  0.233504  0.904619  0.435311  1
  Li  Li15  1  0.898517  0.664075  0.563542  1
  Li  Li16  1  0.328785  0.664305  0.620386  1
  Li  Li17  1  0.898409  0.234728  0.063549  1
  Co  Co18  1  0.433080  0.430985  0.752460  1
  Co  Co19  1  0.566925  0.568973  0.247601  1
  Co  Co20  1  0.566914  0.997902  0.747550  1
  Co  Co21  1  0.433093  0.002056  0.252383  1
  Co  Co22  1  0.000001  0.562793  0.749996  1
  Co  Co23  1  1.000001  0.437190  0.250011  1
  P  P24  1  0.677325  0.910289  0.156774  1
  P  P25  1  0.668134  0.335471  0.125719  1
  P  P26  1  0.091391  0.314264  0.656566  1
  P  P27  1  0.322967  0.089740  0.843228  1
  P  P28  1  0.773147  0.682760  0.845831  1
  P  P29  1  0.226847  0.317318  0.154172  1
  P  P30  1  0.331914  0.667355  0.374268  1
  P  P31  1  0.908622  0.222883  0.843433  1
  P  P32  1  0.668159  0.332623  0.625719  1
  P  P33  1  0.677064  0.766804  0.656776  1
  P  P34  1  0.091323  0.776951  0.156555  1
  P  P35  1  0.226857  0.909594  0.654166  1
  P  P36  1  0.331814  0.664444  0.874284  1
  P  P37  1  0.322709  0.232993  0.343215  1
  P  P38  1  0.908677  0.685651  0.343462  1
  P  P39  1  0.773141  0.090474  0.345824  1
  O  O40  1  0.891243  0.521743  0.335340  1
  O  O41  1  0.254340  0.327160  0.658596  1
  O  O42  1  0.745671  0.072821  0.841410  1
  O  O43  1  0.216318  0.215817  0.249095  1
  O  O44  1  0.373797  0.891684  0.664568  1
  O  O45  1  1.000008  0.211113  0.750001  1
  O  O46  1  0.234066  0.997013  0.932390  1
  O  O47  1  0.680930  0.492662  0.160507  1
  O  O48  1  0.783566  0.784136  0.750881  1
  O  O49  1  0.487131  0.377982  0.331551  1
  O  O50  1  0.999657  0.219438  0.933247  1
  O  O51  1  0.228576  0.004481  0.565741  1
  O  O52  1  0.319106  0.811760  0.339519  1
  O  O53  1  0.891249  0.369386  0.835323  1
  O  O54  1  0.999768  0.780109  0.433248  1
  O  O55  1  0.771459  0.775949  0.934259  1
  O  O56  1  0.815350  0.486793  0.666809  1
  O  O57  1  0.487463  0.109369  0.831382  1
  O  O58  1  0.783689  0.999498  0.250906  1
  O  O59  1  0.485042  0.678461  0.334680  1
  O  O60  1  0.921862  0.252241  0.346919  1
  O  O61  1  0.664516  0.916939  0.654452  1
  O  O62  1  0.254315  0.926991  0.158586  1
  O  O63  1  0.233491  0.236420  0.432379  1
  O  O64  1  0.330408  0.658792  0.484456  1
  O  O65  1  0.000233  0.780285  0.066766  1
  O  O66  1  0.078137  0.330382  0.153095  1
  O  O67  1  0.373805  0.482149  0.164673  1
  O  O68  1  0.515102  0.321593  0.665400  1
  O  O69  1  0.216466  0.000576  0.749118  1
  O  O70  1  0.626204  0.108378  0.335290  1
  O  O71  1  0.669382  0.341056  0.515534  1
  O  O72  1  0.664690  0.747579  0.154483  1
  O  O73  1  0.330559  0.671582  0.984470  1
  O  O74  1  0.184634  0.671429  0.833194  1
  O  O75  1  0.512588  0.621924  0.668604  1
  O  O76  1  0.681035  0.188252  0.660447  1
  O  O77  1  0.000355  0.219770  0.566753  1
  O  O78  1  0.228609  0.224245  0.065723  1
  O  O79  1  0.815223  0.328407  0.166906  1
  O  O80  1  0.745689  0.672697  0.341429  1
  O  O81  1  0.766003  0.763044  0.567610  1
  O  O82  1  0.626187  0.517928  0.835441  1
  O  O83  1  0.512903  0.890856  0.168420  1
  O  O84  1  0.771308  0.995616  0.434276  1
  O  O85  1  0.078145  0.747812  0.653118  1
  O  O86  1  0.108765  0.478143  0.664667  1
  O  O87  1  0.514972  0.193403  0.165235  1
  O  O88  1  0.318948  0.507209  0.839531  1
  O  O89  1  0.766583  0.002949  0.067622  1
  O  O90  1  0.184782  0.513197  0.333120  1
  O  O91  1  0.108775  0.630491  0.164698  1
  O  O92  1  0.335496  0.252410  0.845571  1
  O  O93  1  0.669784  0.328558  0.015530  1
  O  O94  1  1.000005  0.788775  0.250007  1
  O  O95  1  0.335348  0.082923  0.345500  1
  O  O96  1  0.484885  0.806503  0.834633  1
  O  O97  1  0.921833  0.669647  0.846881  1
