# generated using pymatgen
data_CuO
_symmetry_space_group_name_H-M   'P 1'
_cell_length_a   5.74839158
_cell_length_b   5.74839158
_cell_length_c   12.65157292
_cell_angle_alpha   90.00000000
_cell_angle_beta   90.00000000
_cell_angle_gamma   90.00000000
_symmetry_Int_Tables_number   1
_chemical_formula_structural   CuO
_chemical_formula_sum   'Cu16 O16'
_cell_volume   418.05864840
_cell_formula_units_Z   16
loop_
 _symmetry_equiv_pos_site_id
 _symmetry_equiv_pos_as_xyz
  1  'x, y, z'
loop_
 _atom_site_type_symbol
 _atom_site_label
 _atom_site_symmetry_multiplicity
 _atom_site_fract_x
 _atom_site_fract_y
 _atom_site_fract_z
 _atom_site_occupancy
  Cu  Cu0  1  -0.003945  0.750000  0.003274  1
  Cu  Cu1  1  0.250000  0.496055  0.496726  1
  Cu  Cu2  1  0.250000  1.003945  0.496726  1
  Cu  Cu3  1  0.503945  0.750000  0.003274  1
  Cu  Cu4  1  0.496055  0.250000  0.996726  1
  Cu  Cu5  1  0.750000  -0.003945  0.503274  1
  Cu  Cu6  1  0.750000  0.503945  0.503274  1
  Cu  Cu7  1  1.003945  0.250000  0.996726  1
  Cu  Cu8  1  0.997424  0.750000  0.348832  1
  Cu  Cu9  1  0.250000  0.497424  0.151168  1
  Cu  Cu10  1  0.250000  0.002576  0.151168  1
  Cu  Cu11  1  0.502576  0.750000  0.348832  1
  Cu  Cu12  1  0.497424  0.250000  0.651168  1
  Cu  Cu13  1  0.750000  0.997424  0.848832  1
  Cu  Cu14  1  0.750000  0.502576  0.848832  1
  Cu  Cu15  1  0.002576  0.250000  0.651168  1
  O  O16  1  0.035945  0.250000  0.140328  1
  O  O17  1  0.035758  0.750000  0.147394  1
  O  O18  1  0.250000  0.035945  0.640328  1
  O  O19  1  0.250000  0.464055  0.640328  1
  O  O20  1  0.250000  0.535758  0.352606  1
  O  O21  1  0.250000  0.964242  0.352606  1
  O  O22  1  0.464242  0.750000  0.147394  1
  O  O23  1  0.464055  0.250000  0.140328  1
  O  O24  1  0.535945  0.750000  0.859672  1
  O  O25  1  0.535758  0.250000  0.852606  1
  O  O26  1  0.750000  0.964055  0.359672  1
  O  O27  1  0.750000  0.535945  0.359672  1
  O  O28  1  0.750000  0.035758  0.647394  1
  O  O29  1  0.750000  0.464242  0.647394  1
  O  O30  1  0.964242  0.250000  0.852606  1
  O  O31  1  0.964055  0.750000  0.859672  1
