# generated using pymatgen
data_CoPO4
_symmetry_space_group_name_H-M   'P 1'
_cell_length_a   5.33620632
_cell_length_b   10.35453530
_cell_length_c   7.09962903
_cell_angle_alpha   90.00000000
_cell_angle_beta   87.98771163
_cell_angle_gamma   90.00000000
_symmetry_Int_Tables_number   1
_chemical_formula_structural   CoPO4
_chemical_formula_sum   'Co4 P4 O16'
_cell_volume   392.04053961
_cell_formula_units_Z   4
loop_
 _symmetry_equiv_pos_site_id
 _symmetry_equiv_pos_as_xyz
  1  'x, y, z'
loop_
 _atom_site_type_symbol
 _atom_site_label
 _atom_site_symmetry_multiplicity
 _atom_site_fract_x
 _atom_site_fract_y
 _atom_site_fract_z
 _atom_site_occupancy
  Co  Co0  1  0.800185  0.670580  0.026352  1
  Co  Co1  1  0.300185  0.829420  0.526352  1
  Co  Co2  1  0.699815  0.170580  0.473648  1
  Co  Co3  1  0.199815  0.329420  0.973648  1
  P  P4  1  0.693780  0.401848  0.202512  1
  P  P5  1  0.806220  0.901848  0.297488  1
  P  P6  1  0.306220  0.598152  0.797488  1
  P  P7  1  0.193780  0.098152  0.702512  1
  O  O8  1  0.363220  0.151850  0.537687  1
  O  O9  1  0.728385  0.549936  0.218573  1
  O  O10  1  0.756091  0.340270  0.393814  1
  O  O11  1  0.416932  0.369871  0.162098  1
  O  O12  1  0.228385  0.950064  0.718573  1
  O  O13  1  0.083068  0.869871  0.337902  1
  O  O14  1  0.583068  0.630129  0.837902  1
  O  O15  1  0.256091  0.159730  0.893814  1
  O  O16  1  0.863220  0.348150  0.037687  1
  O  O17  1  0.243909  0.659730  0.606186  1
  O  O18  1  0.636780  0.848150  0.462313  1
  O  O19  1  0.271615  0.450064  0.781427  1
  O  O20  1  0.916932  0.130129  0.662098  1
  O  O21  1  0.136780  0.651850  0.962313  1
  O  O22  1  0.771615  0.049936  0.281427  1
  O  O23  1  0.743909  0.840270  0.106186  1
