# generated using pymatgen
data_Mn(PO3)3
_symmetry_space_group_name_H-M   'P 1'
_cell_length_a   6.66403608
_cell_length_b   6.61702321
_cell_length_c   9.76574667
_cell_angle_alpha   89.99999998
_cell_angle_beta   87.40651804
_cell_angle_gamma   60.23309753
_symmetry_Int_Tables_number   1
_chemical_formula_structural   Mn(PO3)3
_chemical_formula_sum   'Mn2 P6 O18'
_cell_volume   373.30219121
_cell_formula_units_Z   2
loop_
 _symmetry_equiv_pos_site_id
 _symmetry_equiv_pos_as_xyz
  1  'x, y, z'
loop_
 _atom_site_type_symbol
 _atom_site_label
 _atom_site_symmetry_multiplicity
 _atom_site_fract_x
 _atom_site_fract_y
 _atom_site_fract_z
 _atom_site_occupancy
  Mn  Mn0  1  0.333607  0.344395  0.499952  1
  Mn  Mn1  1  0.333607  0.321998  0.999952  1
  O  O2  1  0.240760  0.939373  0.243113  1
  O  O3  1  0.240760  0.819867  0.743113  1
  O  O4  1  0.082044  0.594052  0.876725  1
  O  O5  1  0.090163  0.593091  0.612810  1
  O  O6  1  0.082044  0.323904  0.376725  1
  O  O7  1  0.090163  0.316746  0.112810  1
  O  O8  1  0.320981  0.576986  0.116279  1
  O  O9  1  0.328065  0.587781  0.378777  1
  O  O10  1  0.814585  0.949567  0.745127  1
  O  O11  1  0.944875  0.807713  0.261927  1
  O  O12  1  0.596486  0.335866  0.625695  1
  O  O13  1  0.320981  0.102033  0.616279  1
  O  O14  1  0.584026  0.321940  0.889467  1
  O  O15  1  0.328065  0.084154  0.878777  1
  O  O16  1  0.584026  0.094035  0.389467  1
  O  O17  1  0.596486  0.067650  0.125695  1
  O  O18  1  0.814585  0.235848  0.245127  1
  O  O19  1  0.944875  0.247413  0.761927  1
  P  P20  1  0.062852  0.719969  0.747807  1
  P  P21  1  0.219147  0.710068  0.249607  1
  P  P22  1  0.062852  0.217179  0.247807  1
  P  P23  1  0.219147  0.070784  0.749607  1
  P  P24  1  0.715646  0.226748  0.752703  1
  P  P25  1  0.715646  0.057606  0.252703  1
