# generated using pymatgen
data_LiFePO4
_symmetry_space_group_name_H-M   'P 1'
_cell_length_a   5.11038153
_cell_length_b   10.25194076
_cell_length_c   6.89566192
_cell_angle_alpha   90.00000000
_cell_angle_beta   89.82512237
_cell_angle_gamma   90.00000000
_symmetry_Int_Tables_number   1
_chemical_formula_structural   LiFePO4
_chemical_formula_sum   'Li4 Fe4 P4 O16'
_cell_volume   361.27120758
_cell_formula_units_Z   4
loop_
 _symmetry_equiv_pos_site_id
 _symmetry_equiv_pos_as_xyz
  1  'x, y, z'
loop_
 _atom_site_type_symbol
 _atom_site_label
 _atom_site_symmetry_multiplicity
 _atom_site_fract_x
 _atom_site_fract_y
 _atom_site_fract_z
 _atom_site_occupancy
  Fe  Fe0  1  0.206011  0.156328  0.000735  1
  Fe  Fe1  1  0.293989  0.656328  0.499265  1
  Fe  Fe2  1  0.706011  0.343672  0.500735  1
  Fe  Fe3  1  0.793989  0.843672  0.999265  1
  Li  Li4  1  0.203040  0.150902  0.500879  1
  Li  Li5  1  0.296960  0.650902  0.999121  1
  Li  Li6  1  0.703040  0.349098  0.000879  1
  Li  Li7  1  0.796960  0.849098  0.499121  1
  O  O8  1  0.099325  0.623850  0.752110  1
  O  O9  1  0.175113  0.842811  0.434321  1
  O  O10  1  0.185334  0.839571  0.063257  1
  O  O11  1  0.242030  0.052750  0.249367  1
  O  O12  1  0.257970  0.552750  0.250633  1
  O  O13  1  0.314666  0.339571  0.436743  1
  O  O14  1  0.324887  0.342811  0.065679  1
  O  O15  1  0.400675  0.123849  0.747890  1
  O  O16  1  0.599325  0.876150  0.252110  1
  O  O17  1  0.675113  0.657189  0.934321  1
  O  O18  1  0.685334  0.660429  0.563257  1
  O  O19  1  0.742030  0.447250  0.749367  1
  O  O20  1  0.757970  0.947250  0.750633  1
  O  O21  1  0.814666  0.160429  0.936743  1
  O  O22  1  0.824887  0.157189  0.565679  1
  O  O23  1  0.900675  0.376150  0.247890  1
  P  P24  1  0.200731  0.403862  0.250157  1
  P  P25  1  0.299269  0.903862  0.249843  1
  P  P26  1  0.700731  0.096138  0.750157  1
  P  P27  1  0.799269  0.596138  0.749843  1
