# generated using pymatgen
data_LiCrPO4
_symmetry_space_group_name_H-M   'P 1'
_cell_length_a   5.22197017
_cell_length_b   9.70594018
_cell_length_c   7.06422259
_cell_angle_alpha   90.00000000
_cell_angle_beta   88.21656431
_cell_angle_gamma   90.00000000
_symmetry_Int_Tables_number   1
_chemical_formula_structural   LiCrPO4
_chemical_formula_sum   'Li4 Cr4 P4 O16'
_cell_volume   357.87053992
_cell_formula_units_Z   4
loop_
 _symmetry_equiv_pos_site_id
 _symmetry_equiv_pos_as_xyz
  1  'x, y, z'
loop_
 _atom_site_type_symbol
 _atom_site_label
 _atom_site_symmetry_multiplicity
 _atom_site_fract_x
 _atom_site_fract_y
 _atom_site_fract_z
 _atom_site_occupancy
  Li  Li0  1  0.705511  0.320415  0.025641  1
  Li  Li1  1  0.794489  0.820415  0.474359  1
  Li  Li2  1  0.294489  0.679585  0.974359  1
  Li  Li3  1  0.205511  0.179585  0.525641  1
  Cr  Cr4  1  0.256245  0.614102  0.478772  1
  Cr  Cr5  1  0.756245  0.885898  0.978772  1
  Cr  Cr6  1  0.243755  0.114102  0.021228  1
  Cr  Cr7  1  0.743755  0.385898  0.521228  1
  P  P8  1  0.693261  0.094272  0.733307  1
  P  P9  1  0.193261  0.405728  0.233307  1
  P  P10  1  0.806739  0.594272  0.766693  1
  P  P11  1  0.306739  0.905728  0.266693  1
  O  O12  1  0.255714  0.060570  0.307074  1
  O  O13  1  0.097070  0.630149  0.756082  1
  O  O14  1  0.244286  0.560570  0.192926  1
  O  O15  1  0.795827  0.112705  0.941498  1
  O  O16  1  0.704173  0.612705  0.558502  1
  O  O17  1  0.295827  0.387295  0.441498  1
  O  O18  1  0.204173  0.887295  0.058502  1
  O  O19  1  0.402930  0.130149  0.743918  1
  O  O20  1  0.902930  0.369851  0.243918  1
  O  O21  1  0.333835  0.313914  0.085807  1
  O  O22  1  0.666165  0.686086  0.914193  1
  O  O23  1  0.833835  0.186086  0.585807  1
  O  O24  1  0.597070  0.869851  0.256082  1
  O  O25  1  0.755714  0.439430  0.807074  1
  O  O26  1  0.166165  0.813914  0.414193  1
  O  O27  1  0.744286  0.939430  0.692926  1
