# generated using pymatgen
data_LiCo3P3O11
_symmetry_space_group_name_H-M   'P 1'
_cell_length_a   9.84734106
_cell_length_b   9.66646908
_cell_length_c   10.10833279
_cell_angle_alpha   90.00000000
_cell_angle_beta   62.24384265
_cell_angle_gamma   90.00000000
_symmetry_Int_Tables_number   1
_chemical_formula_structural   LiCo3P3O11
_chemical_formula_sum   'Li4 Co12 P12 O44'
_cell_volume   851.48896340
_cell_formula_units_Z   4
loop_
 _symmetry_equiv_pos_site_id
 _symmetry_equiv_pos_as_xyz
  1  'x, y, z'
loop_
 _atom_site_type_symbol
 _atom_site_label
 _atom_site_symmetry_multiplicity
 _atom_site_fract_x
 _atom_site_fract_y
 _atom_site_fract_z
 _atom_site_occupancy
  Li  Li0  1  0.007263  0.328672  0.296251  1
  Li  Li1  1  0.492737  0.828672  0.203749  1
  Li  Li2  1  0.992737  0.671328  0.703749  1
  Li  Li3  1  0.507263  0.171328  0.796251  1
  Co  Co4  1  0.644084  0.868361  0.628657  1
  Co  Co5  1  0.182755  0.131262  0.732116  1
  Co  Co6  1  0.003142  0.874842  0.896672  1
  Co  Co7  1  0.355916  0.131639  0.371343  1
  Co  Co8  1  0.817245  0.868738  0.267884  1
  Co  Co9  1  0.317245  0.631262  0.767884  1
  Co  Co10  1  0.996858  0.125158  0.103328  1
  Co  Co11  1  0.496858  0.374842  0.603328  1
  Co  Co12  1  0.144084  0.631639  0.128657  1
  Co  Co13  1  0.503142  0.625158  0.396672  1
  Co  Co14  1  0.855916  0.368361  0.871343  1
  Co  Co15  1  0.682755  0.368738  0.232116  1
  P  P16  1  0.849312  0.066310  0.744997  1
  P  P17  1  0.326978  0.837944  0.565507  1
  P  P18  1  0.807466  0.578402  0.429327  1
  P  P19  1  0.150688  0.933690  0.255003  1
  P  P20  1  0.192534  0.421598  0.570673  1
  P  P21  1  0.692534  0.078402  0.070673  1
  P  P22  1  0.826978  0.662056  0.065507  1
  P  P23  1  0.307466  0.921598  0.929327  1
  P  P24  1  0.673022  0.162056  0.434493  1
  P  P25  1  0.650688  0.566310  0.755003  1
  P  P26  1  0.173022  0.337944  0.934493  1
  P  P27  1  0.349312  0.433690  0.244997  1
  O  O28  1  0.361771  0.779584  0.410331  1
  O  O29  1  0.168971  0.992836  0.916320  1
  O  O30  1  0.861771  0.720416  0.910331  1
  O  O31  1  0.459071  0.976960  0.809332  1
  O  O32  1  0.540929  0.023040  0.190668  1
  O  O33  1  0.313760  0.518837  0.140658  1
  O  O34  1  0.504375  0.515955  0.745488  1
  O  O35  1  0.711822  0.236481  0.064370  1
  O  O36  1  0.040929  0.476960  0.690668  1
  O  O37  1  0.995625  0.015955  0.754512  1
  O  O38  1  0.323265  0.996988  0.565304  1
  O  O39  1  0.638229  0.220416  0.589669  1
  O  O40  1  0.540440  0.226585  0.405227  1
  O  O41  1  0.211822  0.263519  0.564370  1
  O  O42  1  0.293733  0.970549  0.085783  1
  O  O43  1  0.351433  0.277916  0.228665  1
  O  O44  1  0.178744  0.771323  0.695145  1
  O  O45  1  0.138229  0.279584  0.089669  1
  O  O46  1  0.186240  0.018837  0.359342  1
  O  O47  1  0.813760  0.981163  0.640658  1
  O  O48  1  0.706267  0.029451  0.914217  1
  O  O49  1  0.821256  0.228677  0.304855  1
  O  O50  1  0.321256  0.271323  0.804855  1
  O  O51  1  0.959560  0.726585  0.094773  1
  O  O52  1  0.648567  0.722084  0.771335  1
  O  O53  1  0.686240  0.481163  0.859342  1
  O  O54  1  0.331029  0.492836  0.583680  1
  O  O55  1  0.959071  0.523040  0.309332  1
  O  O56  1  0.668971  0.507164  0.416320  1
  O  O57  1  0.148567  0.777916  0.271335  1
  O  O58  1  0.040440  0.273415  0.905227  1
  O  O59  1  0.851433  0.222084  0.728665  1
  O  O60  1  0.288178  0.763519  0.935630  1
  O  O61  1  0.788178  0.736481  0.435630  1
  O  O62  1  0.831029  0.007164  0.083680  1
  O  O63  1  0.176735  0.496988  0.934696  1
  O  O64  1  0.206267  0.470549  0.414217  1
  O  O65  1  0.678744  0.728677  0.195145  1
  O  O66  1  0.676735  0.003012  0.434696  1
  O  O67  1  0.459560  0.773415  0.594773  1
  O  O68  1  0.793733  0.529451  0.585783  1
  O  O69  1  0.495625  0.484045  0.254512  1
  O  O70  1  0.823265  0.503012  0.065304  1
  O  O71  1  0.004375  0.984045  0.245488  1
