# generated using pymatgen
data_LiSb(PO3)4
_symmetry_space_group_name_H-M   'P 1'
_cell_length_a   7.54231013
_cell_length_b   7.54318535
_cell_length_c   10.12421912
_cell_angle_alpha   80.93366460
_cell_angle_beta   70.05902095
_cell_angle_gamma   109.30953779
_symmetry_Int_Tables_number   1
_chemical_formula_structural   LiSb(PO3)4
_chemical_formula_sum   'Li2 Sb2 P8 O24'
_cell_volume   486.69825637
_cell_formula_units_Z   2
loop_
 _symmetry_equiv_pos_site_id
 _symmetry_equiv_pos_as_xyz
  1  'x, y, z'
loop_
 _atom_site_type_symbol
 _atom_site_label
 _atom_site_symmetry_multiplicity
 _atom_site_fract_x
 _atom_site_fract_y
 _atom_site_fract_z
 _atom_site_occupancy
  Li  Li0  1  0.000000  0.500000  0.000000  1
  Li  Li1  1  0.000000  0.000000  0.500000  1
  O  O2  1  0.023892  0.639713  0.162569  1
  O  O3  1  0.128032  0.805501  0.571330  1
  O  O4  1  0.191900  0.696819  0.338021  1
  O  O5  1  0.486776  0.824525  0.410087  1
  O  O6  1  0.310158  0.720520  0.826674  1
  O  O7  1  0.200254  0.497532  0.556171  1
  O  O8  1  0.123318  0.300876  0.071359  1
  O  O9  1  0.734768  0.896806  0.089828  1
  O  O10  1  0.553669  0.756434  0.943804  1
  O  O11  1  0.697783  0.813536  0.662575  1
  O  O12  1  0.534690  0.529945  0.162004  1
  O  O13  1  0.047420  0.136930  0.673241  1
  O  O14  1  0.952580  0.863070  0.326759  1
  O  O15  1  0.465310  0.470055  0.837996  1
  O  O16  1  0.302217  0.186464  0.337425  1
  O  O17  1  0.446331  0.243566  0.056196  1
  O  O18  1  0.265232  0.103194  0.910172  1
  O  O19  1  0.876682  0.699124  0.928641  1
  O  O20  1  0.799746  0.502468  0.443829  1
  O  O21  1  0.689842  0.279480  0.173326  1
  O  O22  1  0.513224  0.175475  0.589913  1
  O  O23  1  0.808100  0.303181  0.661979  1
  O  O24  1  0.871968  0.194499  0.428670  1
  O  O25  1  0.976108  0.360287  0.837431  1
  P  P26  1  0.253872  0.719437  0.472938  1
  P  P27  1  0.007512  0.317680  0.696116  1
  P  P28  1  0.513847  0.703590  0.803824  1
  P  P29  1  0.692338  0.726743  0.027033  1
  P  P30  1  0.307662  0.273257  0.972967  1
  P  P31  1  0.486153  0.296410  0.196176  1
  P  P32  1  0.992488  0.682320  0.303884  1
  P  P33  1  0.746128  0.280563  0.527062  1
  Sb  Sb34  1  0.206709  0.956693  0.750044  1
  Sb  Sb35  1  0.793291  0.043307  0.249956  1
