# generated using pymatgen
data_Cr5(PO4)4
_symmetry_space_group_name_H-M   'P 1'
_cell_length_a   8.07316547
_cell_length_b   8.35015472
_cell_length_c   10.37969614
_cell_angle_alpha   91.71543646
_cell_angle_beta   99.10326714
_cell_angle_gamma   113.63409559
_symmetry_Int_Tables_number   1
_chemical_formula_structural   Cr5(PO4)4
_chemical_formula_sum   'Cr10 P8 O32'
_cell_volume   629.57447035
_cell_formula_units_Z   2
loop_
 _symmetry_equiv_pos_site_id
 _symmetry_equiv_pos_as_xyz
  1  'x, y, z'
loop_
 _atom_site_type_symbol
 _atom_site_label
 _atom_site_symmetry_multiplicity
 _atom_site_fract_x
 _atom_site_fract_y
 _atom_site_fract_z
 _atom_site_occupancy
  Cr  Cr0  1  0.248079  0.764864  0.058112  1
  Cr  Cr1  1  0.247844  0.765210  0.557949  1
  Cr  Cr2  1  0.752166  0.234788  0.442051  1
  Cr  Cr3  1  0.751910  0.235138  0.941884  1
  Cr  Cr4  1  0.000013  0.000016  0.000012  1
  Cr  Cr5  1  0.999976  0.999975  0.499978  1
  Cr  Cr6  1  0.414958  0.665320  0.322682  1
  Cr  Cr7  1  0.414768  0.665285  0.822501  1
  Cr  Cr8  1  0.585275  0.334750  0.177536  1
  Cr  Cr9  1  0.585028  0.334630  0.677318  1
  P  P10  1  0.198819  0.425907  0.070898  1
  P  P11  1  0.198916  0.426279  0.570941  1
  P  P12  1  0.801085  0.573717  0.429068  1
  P  P13  1  0.801192  0.574093  0.929103  1
  P  P14  1  0.305233  0.024150  0.319996  1
  P  P15  1  0.305283  0.023966  0.820159  1
  P  P16  1  0.694712  0.976034  0.179832  1
  P  P17  1  0.694764  0.975861  0.680008  1
  O  O18  1  0.235183  0.955790  0.171980  1
  O  O19  1  0.235306  0.955640  0.672389  1
  O  O20  1  0.764702  0.044376  0.327598  1
  O  O21  1  0.764807  0.044234  0.828019  1
  O  O22  1  0.339790  0.880996  0.399815  1
  O  O23  1  0.339973  0.880954  0.900049  1
  O  O24  1  0.660034  0.119040  0.099936  1
  O  O25  1  0.660215  0.119021  0.600187  1
  O  O26  1  0.170801  0.558122  0.168912  1
  O  O27  1  0.170984  0.558459  0.669090  1
  O  O28  1  0.829013  0.441546  0.330908  1
  O  O29  1  0.829196  0.441864  0.831099  1
  O  O30  1  0.012327  0.264881  0.024611  1
  O  O31  1  0.012585  0.265568  0.524638  1
  O  O32  1  0.987412  0.734430  0.475369  1
  O  O33  1  0.987669  0.735148  0.975385  1
  O  O34  1  0.254794  0.549908  0.459151  1
  O  O35  1  0.254636  0.549487  0.959107  1
  O  O36  1  0.745359  0.450516  0.040891  1
  O  O37  1  0.745211  0.450083  0.540850  1
  O  O38  1  0.178169  0.087671  0.375690  1
  O  O39  1  0.178051  0.087476  0.875961  1
  O  O40  1  0.821948  0.912528  0.124032  1
  O  O41  1  0.821824  0.912330  0.624320  1
  O  O42  1  0.500534  0.815777  0.169398  1
  O  O43  1  0.500333  0.815884  0.669345  1
  O  O44  1  0.499670  0.184118  0.330660  1
  O  O45  1  0.499465  0.184223  0.830599  1
  O  O46  1  0.344797  0.366867  0.129987  1
  O  O47  1  0.344807  0.367070  0.629953  1
  O  O48  1  0.655189  0.632913  0.370044  1
  O  O49  1  0.655197  0.633094  0.869997  1
