# generated using pymatgen
data_La4NiO8
_symmetry_space_group_name_H-M   'P 1'
_cell_length_a   5.33406720
_cell_length_b   6.90337338
_cell_length_c   6.90337306
_cell_angle_alpha   45.40911586
_cell_angle_beta   90.00000000
_cell_angle_gamma   90.00000000
_symmetry_Int_Tables_number   1
_chemical_formula_structural   La4NiO8
_chemical_formula_sum   'La4 Ni1 O8'
_cell_volume   181.02776852
_cell_formula_units_Z   1
loop_
 _symmetry_equiv_pos_site_id
 _symmetry_equiv_pos_as_xyz
  1  'x, y, z'
loop_
 _atom_site_type_symbol
 _atom_site_label
 _atom_site_symmetry_multiplicity
 _atom_site_fract_x
 _atom_site_fract_y
 _atom_site_fract_z
 _atom_site_occupancy
  La  La0  1  0.000000  0.133886  0.133886  1
  La  La1  1  0.000000  0.866114  0.866114  1
  La  La2  1  0.500000  0.367354  0.367354  1
  La  La3  1  0.500000  0.632646  0.632646  1
  Ni  Ni4  1  0.500000  0.000000  0.000000  1
  O  O5  1  0.000000  0.311863  0.311863  1
  O  O6  1  0.000000  0.688137  0.688137  1
  O  O7  1  0.262026  0.249197  0.750803  1
  O  O8  1  0.262026  0.750803  0.249197  1
  O  O9  1  0.500000  0.841234  0.841234  1
  O  O10  1  0.500000  0.158766  0.158766  1
  O  O11  1  0.737974  0.750803  0.249197  1
  O  O12  1  0.737974  0.249197  0.750803  1
