# generated using pymatgen
data_RbV(PO4)2
_symmetry_space_group_name_H-M   'P 1'
_cell_length_a   4.76137682
_cell_length_b   9.16336983
_cell_length_c   16.79611916
_cell_angle_alpha   90.00000000
_cell_angle_beta   93.02741634
_cell_angle_gamma   90.00000000
_symmetry_Int_Tables_number   1
_chemical_formula_structural   RbV(PO4)2
_chemical_formula_sum   'Rb4 V4 P8 O32'
_cell_volume   731.79625172
_cell_formula_units_Z   4
loop_
 _symmetry_equiv_pos_site_id
 _symmetry_equiv_pos_as_xyz
  1  'x, y, z'
loop_
 _atom_site_type_symbol
 _atom_site_label
 _atom_site_symmetry_multiplicity
 _atom_site_fract_x
 _atom_site_fract_y
 _atom_site_fract_z
 _atom_site_occupancy
  Rb  Rb0  1  0.391284  0.646972  0.085646  1
  Rb  Rb1  1  0.608716  0.146972  0.414354  1
  Rb  Rb2  1  0.608716  0.353028  0.914354  1
  Rb  Rb3  1  0.391284  0.853028  0.585646  1
  V  V4  1  0.405637  0.568010  0.336657  1
  V  V5  1  0.405637  0.931990  0.836657  1
  V  V6  1  0.594363  0.068010  0.163343  1
  V  V7  1  0.594363  0.431990  0.663343  1
  P  P8  1  0.078409  0.219531  0.598645  1
  P  P9  1  0.141795  0.891497  0.256423  1
  P  P10  1  0.858205  0.391497  0.243577  1
  P  P11  1  0.921591  0.719531  0.901355  1
  P  P12  1  0.858205  0.108503  0.743577  1
  P  P13  1  0.078409  0.280469  0.098645  1
  P  P14  1  0.141795  0.608503  0.756423  1
  P  P15  1  0.921591  0.780469  0.401355  1
  O  O16  1  0.897707  0.559573  0.699087  1
  O  O17  1  0.843347  0.336002  0.592192  1
  O  O18  1  0.609625  0.500995  0.245422  1
  O  O19  1  0.785240  0.232830  0.255902  1
  O  O20  1  0.551281  0.039530  0.902852  1
  O  O21  1  0.336037  0.274006  0.650379  1
  O  O22  1  0.956375  0.413299  0.152922  1
  O  O23  1  0.853688  0.653393  0.979182  1
  O  O24  1  0.448719  0.960470  0.097148  1
  O  O25  1  0.156653  0.663998  0.407808  1
  O  O26  1  0.146312  0.153393  0.520818  1
  O  O27  1  0.156653  0.836002  0.907808  1
  O  O28  1  0.448719  0.539530  0.597148  1
  O  O29  1  0.551281  0.460470  0.402852  1
  O  O30  1  0.897707  0.940427  0.199087  1
  O  O31  1  0.956375  0.086701  0.652922  1
  O  O32  1  0.336037  0.225994  0.150379  1
  O  O33  1  0.609625  0.999005  0.745422  1
  O  O34  1  0.214760  0.767170  0.744098  1
  O  O35  1  0.853688  0.846607  0.479182  1
  O  O36  1  0.663963  0.725994  0.349621  1
  O  O37  1  0.214760  0.732830  0.244098  1
  O  O38  1  0.102293  0.059573  0.800913  1
  O  O39  1  0.663963  0.774006  0.849621  1
  O  O40  1  0.043625  0.913299  0.347078  1
  O  O41  1  0.390375  0.000995  0.254578  1
  O  O42  1  0.146312  0.346607  0.020818  1
  O  O43  1  0.843347  0.163998  0.092192  1
  O  O44  1  0.043625  0.586701  0.847078  1
  O  O45  1  0.102293  0.440427  0.300913  1
  O  O46  1  0.785240  0.267170  0.755902  1
  O  O47  1  0.390375  0.499005  0.754578  1
