# generated using pymatgen
data_Li2Mo(PO4)2
_symmetry_space_group_name_H-M   'P 1'
_cell_length_a   4.94598289
_cell_length_b   4.94598112
_cell_length_c   7.44784200
_cell_angle_alpha   89.99985251
_cell_angle_beta   90.00012998
_cell_angle_gamma   120.00012705
_symmetry_Int_Tables_number   1
_chemical_formula_structural   Li2Mo(PO4)2
_chemical_formula_sum   'Li2 Mo1 P2 O8'
_cell_volume   157.78495672
_cell_formula_units_Z   1
loop_
 _symmetry_equiv_pos_site_id
 _symmetry_equiv_pos_as_xyz
  1  'x, y, z'
loop_
 _atom_site_type_symbol
 _atom_site_label
 _atom_site_symmetry_multiplicity
 _atom_site_fract_x
 _atom_site_fract_y
 _atom_site_fract_z
 _atom_site_occupancy
  Li  Li0  1  0.333309  0.666671  0.689154  1
  Li  Li1  1  0.666642  0.333328  0.310851  1
  Mo  Mo2  1  0.999977  1.000000  0.999999  1
  P  P3  1  0.333313  0.666665  0.239871  1
  P  P4  1  0.666643  0.333335  0.760120  1
  O  O5  1  0.045562  0.685926  0.164185  1
  O  O6  1  0.314048  0.359656  0.164188  1
  O  O7  1  0.666644  0.333333  0.560543  1
  O  O8  1  0.640319  0.954412  0.164185  1
  O  O9  1  0.685904  0.640362  0.835816  1
  O  O10  1  0.954410  0.314074  0.835819  1
  O  O11  1  0.333312  0.666667  0.439450  1
  O  O12  1  0.359616  0.045570  0.835817  1
