# generated using pymatgen
data_Ni(PO3)4
_symmetry_space_group_name_H-M   'P 1'
_cell_length_a   12.93440879
_cell_length_b   8.33177939
_cell_length_c   9.19918978
_cell_angle_alpha   90.00000000
_cell_angle_beta   90.00000000
_cell_angle_gamma   90.00000000
_symmetry_Int_Tables_number   1
_chemical_formula_structural   Ni(PO3)4
_chemical_formula_sum   'Ni4 P16 O48'
_cell_volume   991.36577863
_cell_formula_units_Z   4
loop_
 _symmetry_equiv_pos_site_id
 _symmetry_equiv_pos_as_xyz
  1  'x, y, z'
loop_
 _atom_site_type_symbol
 _atom_site_label
 _atom_site_symmetry_multiplicity
 _atom_site_fract_x
 _atom_site_fract_y
 _atom_site_fract_z
 _atom_site_occupancy
  Ni  Ni0  1  0.000000  0.364371  0.750000  1
  Ni  Ni1  1  0.500000  0.864371  0.750000  1
  Ni  Ni2  1  0.000000  0.635629  0.250000  1
  Ni  Ni3  1  0.500000  0.135629  0.250000  1
  P  P4  1  0.142828  0.815453  0.006616  1
  P  P5  1  0.851428  0.458973  0.489940  1
  P  P6  1  0.351428  0.958973  0.010060  1
  P  P7  1  0.648572  0.958973  0.489940  1
  P  P8  1  0.642828  0.315453  0.493384  1
  P  P9  1  0.148572  0.541027  0.510060  1
  P  P10  1  0.148572  0.458973  0.010060  1
  P  P11  1  0.351428  0.041027  0.510060  1
  P  P12  1  0.642828  0.684547  0.993384  1
  P  P13  1  0.648572  0.041027  0.989940  1
  P  P14  1  0.857172  0.815453  0.493384  1
  P  P15  1  0.357172  0.684547  0.506616  1
  P  P16  1  0.142828  0.184547  0.506616  1
  P  P17  1  0.857172  0.184547  0.993384  1
  P  P18  1  0.357172  0.315453  0.006616  1
  P  P19  1  0.851428  0.541027  0.989940  1
  O  O20  1  0.567978  0.962334  0.372554  1
  O  O21  1  0.058839  0.809133  0.120615  1
  O  O22  1  0.371098  0.861739  0.874386  1
  O  O23  1  0.318380  0.138971  0.962683  1
  O  O24  1  0.318380  0.861029  0.462683  1
  O  O25  1  0.744889  0.392294  0.420497  1
  O  O26  1  0.871098  0.361739  0.625614  1
  O  O27  1  0.932022  0.537666  0.872554  1
  O  O28  1  0.371098  0.138261  0.374387  1
  O  O29  1  0.891411  0.908232  0.625980  1
  O  O30  1  0.818380  0.361029  0.037317  1
  O  O31  1  0.058839  0.190867  0.620615  1
  O  O32  1  0.628902  0.861739  0.625614  1
  O  O33  1  0.255111  0.607706  0.579503  1
  O  O34  1  0.244889  0.892294  0.079503  1
  O  O35  1  0.391411  0.591768  0.374020  1
  O  O36  1  0.128902  0.361739  0.874386  1
  O  O37  1  0.441161  0.690867  0.620615  1
  O  O38  1  0.244889  0.107706  0.579503  1
  O  O39  1  0.755111  0.892294  0.420497  1
  O  O40  1  0.432022  0.037666  0.627446  1
  O  O41  1  0.681620  0.861029  0.037317  1
  O  O42  1  0.941161  0.190867  0.879385  1
  O  O43  1  0.181620  0.638971  0.962683  1
  O  O44  1  0.818380  0.638971  0.537317  1
  O  O45  1  0.181620  0.361029  0.462683  1
  O  O46  1  0.891411  0.091768  0.125980  1
  O  O47  1  0.871098  0.638261  0.125613  1
  O  O48  1  0.441161  0.309133  0.120615  1
  O  O49  1  0.941161  0.809133  0.379385  1
  O  O50  1  0.391411  0.408232  0.874020  1
  O  O51  1  0.567978  0.037666  0.872554  1
  O  O52  1  0.608589  0.408232  0.625980  1
  O  O53  1  0.558839  0.690867  0.879385  1
  O  O54  1  0.558839  0.309133  0.379385  1
  O  O55  1  0.067978  0.462334  0.127446  1
  O  O56  1  0.932022  0.462334  0.372554  1
  O  O57  1  0.681620  0.138971  0.537317  1
  O  O58  1  0.108589  0.091768  0.374020  1
  O  O59  1  0.608589  0.591768  0.125980  1
  O  O60  1  0.755111  0.107706  0.920497  1
  O  O61  1  0.432022  0.962334  0.127446  1
  O  O62  1  0.128902  0.638261  0.374387  1
  O  O63  1  0.255111  0.392294  0.079503  1
  O  O64  1  0.744889  0.607706  0.920497  1
  O  O65  1  0.108589  0.908232  0.874020  1
  O  O66  1  0.628902  0.138261  0.125613  1
  O  O67  1  0.067978  0.537666  0.627446  1
