# generated using pymatgen
data_LiBi2(PO4)3
_symmetry_space_group_name_H-M   'P 1'
_cell_length_a   8.78688799
_cell_length_b   9.68257286
_cell_length_c   8.77152997
_cell_angle_alpha   63.44177597
_cell_angle_beta   60.14508897
_cell_angle_gamma   62.96875642
_symmetry_Int_Tables_number   1
_chemical_formula_structural   LiBi2(PO4)3
_chemical_formula_sum   'Li2 Bi4 P6 O24'
_cell_volume   552.47032282
_cell_formula_units_Z   2
loop_
 _symmetry_equiv_pos_site_id
 _symmetry_equiv_pos_as_xyz
  1  'x, y, z'
loop_
 _atom_site_type_symbol
 _atom_site_label
 _atom_site_symmetry_multiplicity
 _atom_site_fract_x
 _atom_site_fract_y
 _atom_site_fract_z
 _atom_site_occupancy
  Bi  Bi0  1  0.135694  0.564797  0.148140  1
  Bi  Bi1  1  0.338953  0.966562  0.337287  1
  Bi  Bi2  1  0.661043  0.033437  0.662716  1
  Bi  Bi3  1  0.864305  0.435209  0.851856  1
  Li  Li4  1  0.681985  0.121654  0.257943  1
  Li  Li5  1  0.318016  0.878348  0.742057  1
  O  O6  1  0.138890  0.109498  0.208002  1
  O  O7  1  0.228303  0.086025  0.553986  1
  O  O8  1  0.219119  0.386340  0.398368  1
  O  O9  1  0.153253  0.249820  0.743327  1
  O  O10  1  0.532138  0.115528  0.150092  1
  O  O11  1  0.257080  0.745922  0.131285  1
  O  O12  1  0.034234  0.595097  0.786178  1
  O  O13  1  0.478753  0.188404  0.500319  1
  O  O14  1  0.165252  0.809899  0.526703  1
  O  O15  1  0.600590  0.593115  0.027368  1
  O  O16  1  0.151057  0.753796  0.848282  1
  O  O17  1  0.494839  0.813646  0.158247  1
  O  O18  1  0.505162  0.186354  0.841757  1
  O  O19  1  0.848946  0.246208  0.151714  1
  O  O20  1  0.399413  0.406887  0.972634  1
  O  O21  1  0.834747  0.190097  0.473298  1
  O  O22  1  0.521245  0.811596  0.499680  1
  O  O23  1  0.965775  0.404895  0.213831  1
  O  O24  1  0.742920  0.254073  0.868726  1
  O  O25  1  0.467855  0.884472  0.849915  1
  O  O26  1  0.846743  0.750191  0.256661  1
  O  O27  1  0.780890  0.613662  0.601618  1
  O  O28  1  0.771693  0.913979  0.446011  1
  O  O29  1  0.861106  0.890493  0.792000  1
  P  P30  1  0.265035  0.235681  0.548524  1
  P  P31  1  0.054368  0.758780  0.738718  1
  P  P32  1  0.453325  0.753956  0.046860  1
  P  P33  1  0.546676  0.246042  0.953146  1
  P  P34  1  0.945633  0.241216  0.261284  1
  P  P35  1  0.734964  0.764323  0.451469  1
