# generated using pymatgen
data_Mo(PO3)5
_symmetry_space_group_name_H-M   'P 1'
_cell_length_a   10.66910248
_cell_length_b   14.01765773
_cell_length_c   9.32646727
_cell_angle_alpha   89.99646431
_cell_angle_beta   69.99779920
_cell_angle_gamma   89.99786591
_symmetry_Int_Tables_number   1
_chemical_formula_structural   Mo(PO3)5
_chemical_formula_sum   'Mo4 P20 O60'
_cell_volume   1310.69080442
_cell_formula_units_Z   4
loop_
 _symmetry_equiv_pos_site_id
 _symmetry_equiv_pos_as_xyz
  1  'x, y, z'
loop_
 _atom_site_type_symbol
 _atom_site_label
 _atom_site_symmetry_multiplicity
 _atom_site_fract_x
 _atom_site_fract_y
 _atom_site_fract_z
 _atom_site_occupancy
  O  O0  1  0.897353  0.750289  0.938661  1
  O  O1  1  0.821681  0.336456  0.896962  1
  O  O2  1  0.894196  0.470547  0.718264  1
  O  O3  1  0.894364  0.029165  0.717951  1
  O  O4  1  0.102649  0.250248  0.061312  1
  O  O5  1  0.178279  0.836463  0.103066  1
  O  O6  1  0.105831  0.970595  0.281720  1
  O  O7  1  0.105602  0.529211  0.282068  1
  O  O8  1  0.178289  0.663083  0.103088  1
  O  O9  1  0.113306  0.379353  0.493547  1
  O  O10  1  0.113277  0.120676  0.493567  1
  O  O11  1  0.140284  0.918630  0.560759  1
  O  O12  1  0.140165  0.581337  0.561058  1
  O  O13  1  0.292338  0.250268  0.149533  1
  O  O14  1  0.345423  0.977778  0.079168  1
  O  O15  1  0.287340  0.856756  0.298025  1
  O  O16  1  0.345275  0.521705  0.079783  1
  O  O17  1  0.287148  0.643055  0.298202  1
  O  O18  1  0.219228  0.749975  0.526147  1
  O  O19  1  0.280772  0.250026  0.473853  1
  O  O20  1  0.212852  0.356945  0.701798  1
  O  O21  1  0.154726  0.478295  0.920216  1
  O  O22  1  0.212660  0.143244  0.701975  1
  O  O23  1  0.154576  0.022222  0.920832  1
  O  O24  1  0.207662  0.749732  0.850467  1
  O  O25  1  0.359836  0.418663  0.438942  1
  O  O26  1  0.359716  0.081370  0.439242  1
  O  O27  1  0.386723  0.879324  0.506433  1
  O  O28  1  0.386694  0.620647  0.506453  1
  O  O29  1  0.321711  0.336917  0.896912  1
  O  O30  1  0.394399  0.470790  0.717932  1
  O  O31  1  0.394169  0.029405  0.718280  1
  O  O32  1  0.321721  0.163537  0.896934  1
  O  O33  1  0.602648  0.249711  0.061339  1
  O  O34  1  0.397351  0.749752  0.938688  1
  O  O35  1  0.678319  0.663544  0.103038  1
  O  O36  1  0.605804  0.529453  0.281736  1
  O  O37  1  0.605636  0.970835  0.282049  1
  O  O38  1  0.678267  0.836924  0.103109  1
  O  O39  1  0.613254  0.120660  0.493604  1
  O  O40  1  0.613331  0.379337  0.493501  1
  O  O41  1  0.640231  0.581406  0.560773  1
  O  O42  1  0.640217  0.918696  0.561038  1
  O  O43  1  0.792348  0.249697  0.149532  1
  O  O44  1  0.845423  0.522195  0.079218  1
  O  O45  1  0.787338  0.643253  0.298035  1
  O  O46  1  0.845294  0.978286  0.079699  1
  O  O47  1  0.787169  0.856964  0.298173  1
  O  O48  1  0.719229  0.750047  0.526138  1
  O  O49  1  0.780771  0.249954  0.473862  1
  O  O50  1  0.712831  0.143036  0.701827  1
  O  O51  1  0.654706  0.021714  0.920301  1
  O  O52  1  0.712662  0.356747  0.701965  1
  O  O53  1  0.654577  0.477805  0.920782  1
  O  O54  1  0.707651  0.750303  0.850469  1
  O  O55  1  0.859783  0.081304  0.438962  1
  O  O56  1  0.859769  0.418594  0.439227  1
  O  O57  1  0.886669  0.620663  0.506499  1
  O  O58  1  0.821733  0.163076  0.896891  1
  O  O59  1  0.886745  0.879340  0.506396  1
  P  P60  1  0.758453  0.857507  0.475636  1
  P  P61  1  0.764860  0.078099  0.820102  1
  P  P62  1  0.764742  0.421522  0.820376  1
  P  P63  1  0.741506  0.357387  0.524470  1
  P  P64  1  0.253274  0.250243  0.008349  1
  P  P65  1  0.235242  0.921530  0.179615  1
  P  P66  1  0.235147  0.578110  0.179917  1
  P  P67  1  0.241582  0.357487  0.524336  1
  P  P68  1  0.258525  0.857404  0.475499  1
  P  P69  1  0.241476  0.142596  0.524501  1
  P  P70  1  0.258419  0.642513  0.475664  1
  P  P71  1  0.264853  0.421890  0.820082  1
  P  P72  1  0.264759  0.078470  0.820385  1
  P  P73  1  0.246726  0.749757  0.991651  1
  P  P74  1  0.753267  0.249729  0.008365  1
  P  P75  1  0.735258  0.578478  0.179624  1
  P  P76  1  0.735140  0.921901  0.179898  1
  P  P77  1  0.741547  0.142493  0.524364  1
  P  P78  1  0.758494  0.642613  0.475530  1
  P  P79  1  0.746733  0.750271  0.991634  1
  Mo  Mo80  1  0.999914  0.499977  0.500176  1
  Mo  Mo81  1  0.500086  0.500023  0.499824  1
  Mo  Mo82  1  0.499908  0.000024  0.500180  1
  Mo  Mo83  1  0.000092  0.999976  0.499820  1
