# generated using pymatgen
data_Mn4P7O24
_symmetry_space_group_name_H-M   'P 1'
_cell_length_a   10.26482222
_cell_length_b   10.49790307
_cell_length_c   10.76167973
_cell_angle_alpha   112.08462067
_cell_angle_beta   109.04405280
_cell_angle_gamma   105.98743451
_symmetry_Int_Tables_number   1
_chemical_formula_structural   Mn4P7O24
_chemical_formula_sum   'Mn8 P14 O48'
_cell_volume   904.79163049
_cell_formula_units_Z   2
loop_
 _symmetry_equiv_pos_site_id
 _symmetry_equiv_pos_as_xyz
  1  'x, y, z'
loop_
 _atom_site_type_symbol
 _atom_site_label
 _atom_site_symmetry_multiplicity
 _atom_site_fract_x
 _atom_site_fract_y
 _atom_site_fract_z
 _atom_site_occupancy
  Mn  Mn0  1  0.764650  0.158197  0.260455  1
  Mn  Mn1  1  0.617861  0.771396  0.108258  1
  Mn  Mn2  1  0.936272  0.307442  0.924378  1
  Mn  Mn3  1  0.426014  0.591416  0.414697  1
  Mn  Mn4  1  0.063728  0.692558  0.075622  1
  Mn  Mn5  1  0.235350  0.841803  0.739545  1
  Mn  Mn6  1  0.573986  0.408584  0.585303  1
  Mn  Mn7  1  0.382139  0.228604  0.891742  1
  P  P8  1  0.273639  0.134787  0.525858  1
  P  P9  1  0.726361  0.865213  0.474142  1
  P  P10  1  0.000720  0.020394  0.228507  1
  P  P11  1  0.999280  0.979606  0.771493  1
  P  P12  1  0.701331  0.500597  0.953431  1
  P  P13  1  0.380615  0.927690  0.112459  1
  P  P14  1  0.239929  0.816034  0.435000  1
  P  P15  1  0.493237  0.734861  0.757341  1
  P  P16  1  0.931802  0.674000  0.737614  1
  P  P17  1  0.506763  0.265139  0.242659  1
  P  P18  1  0.298669  0.499403  0.046569  1
  P  P19  1  0.760071  0.183966  0.565000  1
  P  P20  1  0.068198  0.326000  0.262386  1
  P  P21  1  0.619385  0.072310  0.887541  1
  O  O22  1  0.073894  0.159861  0.206304  1
  O  O23  1  0.027309  0.674402  0.652853  1
  O  O24  1  0.374512  0.520308  0.206161  1
  O  O25  1  0.676409  0.294978  0.299720  1
  O  O26  1  0.566631  0.737590  0.904607  1
  O  O27  1  0.233295  0.447535  0.375488  1
  O  O28  1  0.397733  0.627016  0.034874  1
  O  O29  1  0.134039  0.490492  0.005013  1
  O  O30  1  0.904495  0.925176  0.593187  1
  O  O31  1  0.995420  0.339439  0.124803  1
  O  O32  1  0.168365  0.817634  0.540942  1
  O  O33  1  0.365211  0.259503  0.508069  1
  O  O34  1  0.627962  0.223429  0.537576  1
  O  O35  1  0.972691  0.325598  0.347147  1
  O  O36  1  0.162871  0.002066  0.796621  1
  O  O37  1  0.717100  0.818918  0.320795  1
  O  O38  1  0.865961  0.509508  0.994987  1
  O  O39  1  0.406822  0.099123  0.214551  1
  O  O40  1  0.004580  0.660561  0.875197  1
  O  O41  1  0.716272  0.167758  0.845280  1
  O  O42  1  0.634789  0.740497  0.491931  1
  O  O43  1  0.694280  0.117865  0.053916  1
  O  O44  1  0.104715  0.717082  0.272051  1
  O  O45  1  0.008065  0.884428  0.126333  1
  O  O46  1  0.282900  0.181082  0.679205  1
  O  O47  1  0.283728  0.832242  0.154720  1
  O  O48  1  0.895285  0.282918  0.727949  1
  O  O49  1  0.095505  0.074824  0.406813  1
  O  O50  1  0.926106  0.840139  0.793696  1
  O  O51  1  0.372038  0.776571  0.462424  1
  O  O52  1  0.837129  0.997934  0.203379  1
  O  O53  1  0.831635  0.182366  0.459058  1
  O  O54  1  0.449068  0.055464  0.829199  1
  O  O55  1  0.550932  0.944536  0.170801  1
  O  O56  1  0.433369  0.262410  0.095393  1
  O  O57  1  0.602267  0.372984  0.965126  1
  O  O58  1  0.766705  0.552465  0.624512  1
  O  O59  1  0.625488  0.479692  0.793839  1
  O  O60  1  0.495514  0.380971  0.373482  1
  O  O61  1  0.688850  0.006418  0.531478  1
  O  O62  1  0.730283  0.657039  0.078381  1
  O  O63  1  0.504486  0.619029  0.626518  1
  O  O64  1  0.991935  0.115572  0.873667  1
  O  O65  1  0.311150  0.993582  0.468522  1
  O  O66  1  0.269717  0.342961  0.921619  1
  O  O67  1  0.593178  0.900877  0.785449  1
  O  O68  1  0.305720  0.882135  0.946084  1
  O  O69  1  0.323591  0.705022  0.700280  1
