# generated using pymatgen
data_Li3Ni2(PO4)3
_symmetry_space_group_name_H-M   'P 1'
_cell_length_a   8.73881646
_cell_length_b   12.33940303
_cell_length_c   8.81583040
_cell_angle_alpha   90.00000000
_cell_angle_beta   90.00000000
_cell_angle_gamma   90.33409406
_symmetry_Int_Tables_number   1
_chemical_formula_structural   Li3Ni2(PO4)3
_chemical_formula_sum   'Li12 Ni8 P12 O48'
_cell_volume   950.61050803
_cell_formula_units_Z   4
loop_
 _symmetry_equiv_pos_site_id
 _symmetry_equiv_pos_as_xyz
  1  'x, y, z'
loop_
 _atom_site_type_symbol
 _atom_site_label
 _atom_site_symmetry_multiplicity
 _atom_site_fract_x
 _atom_site_fract_y
 _atom_site_fract_z
 _atom_site_occupancy
  Li  Li0  1  0.714234  0.680606  0.729783  1
  Li  Li1  1  0.285766  0.319394  0.270217  1
  Li  Li2  1  0.585235  0.252099  0.791607  1
  Li  Li3  1  0.085235  0.752099  0.708393  1
  Li  Li4  1  0.915540  0.298105  0.914739  1
  Li  Li5  1  0.214234  0.180606  0.770217  1
  Li  Li6  1  0.584460  0.201895  0.414739  1
  Li  Li7  1  0.415540  0.798105  0.585261  1
  Li  Li8  1  0.785766  0.819394  0.229783  1
  Li  Li9  1  0.914765  0.247901  0.291607  1
  Li  Li10  1  0.414765  0.747901  0.208393  1
  Li  Li11  1  0.084460  0.701895  0.085261  1
  Ni  Ni12  1  0.245075  0.114535  0.454907  1
  Ni  Ni13  1  0.254925  0.385465  0.954907  1
  Ni  Ni14  1  0.248031  0.890740  0.037780  1
  Ni  Ni15  1  0.751969  0.109260  0.962220  1
  Ni  Ni16  1  0.745075  0.614535  0.045093  1
  Ni  Ni17  1  0.754925  0.885465  0.545093  1
  Ni  Ni18  1  0.748031  0.390740  0.462220  1
  Ni  Ni19  1  0.251969  0.609260  0.537780  1
  P  P20  1  0.963727  0.505422  0.751514  1
  P  P21  1  0.102448  0.148587  0.100060  1
  P  P22  1  0.463727  0.005422  0.748486  1
  P  P23  1  0.536273  0.994578  0.251514  1
  P  P24  1  0.895229  0.147759  0.610350  1
  P  P25  1  0.604771  0.352241  0.110350  1
  P  P26  1  0.395229  0.647759  0.889650  1
  P  P27  1  0.602448  0.648587  0.399940  1
  P  P28  1  0.897552  0.851413  0.899940  1
  P  P29  1  0.036273  0.494578  0.248486  1
  P  P30  1  0.397552  0.351413  0.600060  1
  P  P31  1  0.104771  0.852241  0.389650  1
  O  O32  1  0.314308  0.717477  0.013118  1
  O  O33  1  0.347140  0.464990  0.561300  1
  O  O34  1  0.655803  0.926083  0.338270  1
  O  O35  1  0.348558  0.685921  0.727902  1
  O  O36  1  0.650719  0.687629  0.239058  1
  O  O37  1  0.652860  0.535010  0.438700  1
  O  O38  1  0.849281  0.812371  0.739058  1
  O  O39  1  0.152860  0.035010  0.061300  1
  O  O40  1  0.661770  0.728573  0.524741  1
  O  O41  1  0.924134  0.163348  0.099222  1
  O  O42  1  0.568238  0.090903  0.824169  1
  O  O43  1  0.349281  0.312371  0.760942  1
  O  O44  1  0.814308  0.217477  0.486882  1
  O  O45  1  0.838230  0.771427  0.024741  1
  O  O46  1  0.575866  0.336652  0.599221  1
  O  O47  1  0.622303  0.070513  0.140764  1
  O  O48  1  0.571405  0.662029  0.902135  1
  O  O49  1  0.424134  0.663348  0.400778  1
  O  O50  1  0.071405  0.162029  0.597865  1
  O  O51  1  0.651442  0.314079  0.272098  1
  O  O52  1  0.547597  0.923802  0.644474  1
  O  O53  1  0.848558  0.185921  0.772098  1
  O  O54  1  0.155803  0.426083  0.161730  1
  O  O55  1  0.150719  0.187629  0.260942  1
  O  O56  1  0.452403  0.076198  0.355526  1
  O  O57  1  0.431762  0.909097  0.175831  1
  O  O58  1  0.428595  0.337971  0.097865  1
  O  O59  1  0.685692  0.282523  0.986882  1
  O  O60  1  0.068238  0.590903  0.675831  1
  O  O61  1  0.650788  0.470421  0.083958  1
  O  O62  1  0.952403  0.576198  0.144474  1
  O  O63  1  0.151442  0.814079  0.227902  1
  O  O64  1  0.877697  0.429487  0.640764  1
  O  O65  1  0.344197  0.073917  0.661730  1
  O  O66  1  0.931762  0.409097  0.324169  1
  O  O67  1  0.185692  0.782523  0.513118  1
  O  O68  1  0.150788  0.970421  0.416042  1
  O  O69  1  0.047597  0.423802  0.855526  1
  O  O70  1  0.161770  0.228573  0.975259  1
  O  O71  1  0.349212  0.529579  0.916042  1
  O  O72  1  0.844197  0.573917  0.838270  1
  O  O73  1  0.847140  0.964990  0.938700  1
  O  O74  1  0.849212  0.029579  0.583958  1
  O  O75  1  0.338230  0.271427  0.475259  1
  O  O76  1  0.928595  0.837971  0.402135  1
  O  O77  1  0.075866  0.836652  0.900779  1
  O  O78  1  0.377697  0.929487  0.859236  1
  O  O79  1  0.122303  0.570513  0.359236  1
