# generated using pymatgen
data_Bi5(PO4)6
_symmetry_space_group_name_H-M   'P 1'
_cell_length_a   9.05002580
_cell_length_b   8.94290286
_cell_length_c   8.96373590
_cell_angle_alpha   108.73757482
_cell_angle_beta   109.41615858
_cell_angle_gamma   110.59220075
_symmetry_Int_Tables_number   1
_chemical_formula_structural   Bi5(PO4)6
_chemical_formula_sum   'Bi5 P6 O24'
_cell_volume   556.05057290
_cell_formula_units_Z   1
loop_
 _symmetry_equiv_pos_site_id
 _symmetry_equiv_pos_as_xyz
  1  'x, y, z'
loop_
 _atom_site_type_symbol
 _atom_site_label
 _atom_site_symmetry_multiplicity
 _atom_site_fract_x
 _atom_site_fract_y
 _atom_site_fract_z
 _atom_site_occupancy
  Bi  Bi0  1  0.496803  0.976997  0.338981  1
  Bi  Bi1  1  0.828213  0.526683  0.998459  1
  Bi  Bi2  1  0.029181  0.357243  0.529518  1
  Bi  Bi3  1  0.476082  0.983314  0.822225  1
  Bi  Bi4  1  0.164874  0.165444  0.160996  1
  P  P5  1  0.134505  0.743926  0.881465  1
  P  P6  1  0.748745  0.894711  0.124978  1
  P  P7  1  0.871137  0.125532  0.751573  1
  P  P8  1  0.377027  0.247336  0.618562  1
  P  P9  1  0.239762  0.621242  0.358106  1
  P  P10  1  0.623443  0.364268  0.244081  1
  O  O11  1  0.063024  0.628654  0.304440  1
  O  O12  1  0.277314  0.910130  0.084017  1
  O  O13  1  0.350783  0.080010  0.645537  1
  O  O14  1  0.383480  0.753802  0.563792  1
  O  O15  1  0.160592  0.576433  0.836589  1
  O  O16  1  0.660694  0.234409  0.311363  1
  O  O17  1  0.846868  0.933389  0.695485  1
  O  O18  1  0.926768  0.090892  0.260978  1
  O  O19  1  0.944726  0.689574  0.864655  1
  O  O20  1  0.728286  0.151979  0.797700  1
  O  O21  1  0.853703  0.173292  0.595559  1
  O  O22  1  0.672523  0.872432  0.933527  1
  O  O23  1  0.651952  0.327145  0.074692  1
  O  O24  1  0.065911  0.246072  0.921249  1
  O  O25  1  0.810579  0.756143  0.139883  1
  O  O26  1  0.427555  0.329034  0.180802  1
  O  O27  1  0.345514  0.183438  0.419515  1
  O  O28  1  0.189911  0.422903  0.333206  1
  O  O29  1  0.602720  0.865687  0.181695  1
  O  O30  1  0.239188  0.301854  0.642565  1
  O  O31  1  0.753649  0.566185  0.398398  1
  O  O32  1  0.165593  0.824850  0.758218  1
  O  O33  1  0.571218  0.415365  0.750890  1
  O  O34  1  0.325260  0.667016  0.244977  1
