# generated using pymatgen
data_LiTi(PO3)5
_symmetry_space_group_name_H-M   'P 1'
_cell_length_a   12.52921315
_cell_length_b   9.62392473
_cell_length_c   5.25054057
_cell_angle_alpha   90.00000000
_cell_angle_beta   95.23243543
_cell_angle_gamma   90.00000000
_symmetry_Int_Tables_number   1
_chemical_formula_structural   LiTi(PO3)5
_chemical_formula_sum   'Li2 Ti2 P10 O30'
_cell_volume   630.47303701
_cell_formula_units_Z   2
loop_
 _symmetry_equiv_pos_site_id
 _symmetry_equiv_pos_as_xyz
  1  'x, y, z'
loop_
 _atom_site_type_symbol
 _atom_site_label
 _atom_site_symmetry_multiplicity
 _atom_site_fract_x
 _atom_site_fract_y
 _atom_site_fract_z
 _atom_site_occupancy
  Li  Li0  1  0.570740  0.416122  0.623345  1
  Li  Li1  1  0.070740  0.583878  0.123345  1
  Ti  Ti2  1  0.992916  0.007934  0.003031  1
  Ti  Ti3  1  0.492916  0.992066  0.503031  1
  P  P4  1  0.744092  0.983590  0.758826  1
  P  P5  1  0.085118  0.186383  0.505600  1
  P  P6  1  0.862887  0.514776  0.376126  1
  P  P7  1  0.585118  0.813617  0.005600  1
  P  P8  1  0.244092  0.016410  0.258826  1
  P  P9  1  0.645401  0.514887  0.120657  1
  P  P10  1  0.407214  0.179764  0.007245  1
  P  P11  1  0.907214  0.820236  0.507245  1
  P  P12  1  0.362887  0.485224  0.876126  1
  P  P13  1  0.145401  0.485113  0.620657  1
  O  O14  1  0.839855  0.061070  0.890522  1
  O  O15  1  0.254591  0.415093  0.738467  1
  O  O16  1  0.754591  0.584907  0.238467  1
  O  O17  1  0.985092  0.878134  0.725707  1
  O  O18  1  0.200668  0.111900  0.477988  1
  O  O19  1  0.659573  0.405259  0.928177  1
  O  O20  1  0.789356  0.884821  0.547772  1
  O  O21  1  0.841935  0.402760  0.554351  1
  O  O22  1  0.159573  0.594741  0.428177  1
  O  O23  1  0.007465  0.133566  0.283765  1
  O  O24  1  0.570180  0.499017  0.318481  1
  O  O25  1  0.935494  0.866364  0.243678  1
  O  O26  1  0.053089  0.146859  0.768757  1
  O  O27  1  0.070180  0.500983  0.818481  1
  O  O28  1  0.341935  0.597240  0.054351  1
  O  O29  1  0.604491  0.660037  0.952884  1
  O  O30  1  0.289356  0.115179  0.047772  1
  O  O31  1  0.700668  0.888100  0.977988  1
  O  O32  1  0.148149  0.941953  0.124234  1
  O  O33  1  0.896060  0.664970  0.552749  1
  O  O34  1  0.485092  0.121866  0.225707  1
  O  O35  1  0.553089  0.853141  0.268757  1
  O  O36  1  0.104491  0.339963  0.452884  1
  O  O37  1  0.339855  0.938930  0.390522  1
  O  O38  1  0.648149  0.058047  0.624234  1
  O  O39  1  0.441763  0.487930  0.683244  1
  O  O40  1  0.941763  0.512070  0.183244  1
  O  O41  1  0.396060  0.335030  0.052749  1
  O  O42  1  0.507465  0.866434  0.783765  1
  O  O43  1  0.435494  0.133636  0.743678  1
