# generated using pymatgen
data_Co3(P2O7)2
_symmetry_space_group_name_H-M   'P 1'
_cell_length_a   5.29399860
_cell_length_b   6.36449347
_cell_length_c   16.24425399
_cell_angle_alpha   81.26169813
_cell_angle_beta   80.73698142
_cell_angle_gamma   73.23920946
_symmetry_Int_Tables_number   1
_chemical_formula_structural   Co3(P2O7)2
_chemical_formula_sum   'Co6 P8 O28'
_cell_volume   514.00820572
_cell_formula_units_Z   2
loop_
 _symmetry_equiv_pos_site_id
 _symmetry_equiv_pos_as_xyz
  1  'x, y, z'
loop_
 _atom_site_type_symbol
 _atom_site_label
 _atom_site_symmetry_multiplicity
 _atom_site_fract_x
 _atom_site_fract_y
 _atom_site_fract_z
 _atom_site_occupancy
  Co  Co0  1  0.791971  0.725511  0.405653  1
  Co  Co1  1  0.208029  0.274489  0.594347  1
  Co  Co2  1  0.044358  0.621735  0.818583  1
  Co  Co3  1  0.230184  0.963133  0.330034  1
  Co  Co4  1  0.955642  0.378265  0.181417  1
  Co  Co5  1  0.769816  0.036867  0.669966  1
  P  P6  1  0.822972  0.892072  0.210453  1
  P  P7  1  0.298939  0.778958  0.543955  1
  P  P8  1  0.369215  0.426126  0.318913  1
  P  P9  1  0.436218  0.767058  0.921994  1
  P  P10  1  0.563782  0.232942  0.078006  1
  P  P11  1  0.177028  0.107928  0.789547  1
  P  P12  1  0.701061  0.221042  0.456045  1
  P  P13  1  0.630785  0.573874  0.681087  1
  O  O14  1  0.180742  0.653010  0.339069  1
  O  O15  1  0.885140  0.014168  0.417005  1
  O  O16  1  0.356180  0.138260  0.705466  1
  O  O17  1  0.734577  0.664580  0.906807  1
  O  O18  1  0.410486  0.840021  0.452764  1
  O  O19  1  0.271947  0.622004  0.900018  1
  O  O20  1  0.167966  0.592277  0.554477  1
  O  O21  1  0.218635  0.287169  0.286685  1
  O  O22  1  0.980282  0.671433  0.179229  1
  O  O23  1  0.728053  0.377996  0.099982  1
  O  O24  1  0.265423  0.335420  0.093193  1
  O  O25  1  0.434276  0.296395  0.410660  1
  O  O26  1  0.380628  0.987393  0.854082  1
  O  O27  1  0.819258  0.346990  0.660931  1
  O  O28  1  0.619372  0.012607  0.145918  1
  O  O29  1  0.589514  0.159979  0.547236  1
  O  O30  1  0.019718  0.328567  0.820771  1
  O  O31  1  0.659237  0.166905  0.990808  1
  O  O32  1  0.114860  0.985832  0.582995  1
  O  O33  1  0.832034  0.407723  0.445523  1
  O  O34  1  0.003857  0.039235  0.217608  1
  O  O35  1  0.628649  0.437879  0.267825  1
  O  O36  1  0.340763  0.833095  0.009192  1
  O  O37  1  0.371351  0.562121  0.732175  1
  O  O38  1  0.565724  0.703605  0.589340  1
  O  O39  1  0.643820  0.861740  0.294534  1
  O  O40  1  0.996143  0.960765  0.782392  1
  O  O41  1  0.781365  0.712831  0.713315  1
