# generated using pymatgen
data_Li2Fe(PO3)8
_symmetry_space_group_name_H-M   'P 1'
_cell_length_a   7.25657201
_cell_length_b   7.29751237
_cell_length_c   9.77324039
_cell_angle_alpha   69.57794706
_cell_angle_beta   82.02154830
_cell_angle_gamma   109.91361930
_symmetry_Int_Tables_number   1
_chemical_formula_structural   Li2Fe(PO3)8
_chemical_formula_sum   'Li2 Fe1 P8 O24'
_cell_volume   436.08109297
_cell_formula_units_Z   1
loop_
 _symmetry_equiv_pos_site_id
 _symmetry_equiv_pos_as_xyz
  1  'x, y, z'
loop_
 _atom_site_type_symbol
 _atom_site_label
 _atom_site_symmetry_multiplicity
 _atom_site_fract_x
 _atom_site_fract_y
 _atom_site_fract_z
 _atom_site_occupancy
  Li  Li0  1  0.487936  0.997113  0.505322  1
  Li  Li1  1  0.052246  0.802431  0.752049  1
  Fe  Fe2  1  0.949943  0.194855  0.246762  1
  P  P3  1  0.705727  0.507901  0.296496  1
  P  P4  1  0.258276  0.291868  0.472492  1
  P  P5  1  0.685766  0.992690  0.811000  1
  P  P6  1  0.302288  0.496342  0.689878  1
  P  P7  1  0.724537  0.272056  0.981419  1
  P  P8  1  0.263208  0.730871  0.027826  1
  P  P9  1  0.752827  0.705607  0.520711  1
  P  P10  1  0.304373  0.003107  0.202828  1
  O  O11  1  0.190961  0.867231  0.915423  1
  O  O12  1  0.487146  0.205477  0.061260  1
  O  O13  1  0.726838  0.898493  0.413464  1
  O  O14  1  0.734080  0.305247  0.311403  1
  O  O15  1  0.769823  0.554567  0.436086  1
  O  O16  1  0.231444  0.444644  0.554577  1
  O  O17  1  0.881015  0.960366  0.808181  1
  O  O18  1  0.921442  0.743545  0.591771  1
  O  O19  1  0.816524  0.702024  0.148023  1
  O  O20  1  0.501217  0.787763  0.946679  1
  O  O21  1  0.465170  0.457595  0.331049  1
  O  O22  1  0.083619  0.252064  0.403904  1
  O  O23  1  0.114910  0.045139  0.194509  1
  O  O24  1  0.285621  0.798022  0.167753  1
  O  O25  1  0.650095  0.035520  0.657313  1
  O  O26  1  0.189266  0.307122  0.844746  1
  O  O27  1  0.807449  0.142775  0.092530  1
  O  O28  1  0.355107  0.962934  0.349150  1
  O  O29  1  0.276397  0.694237  0.684425  1
  O  O30  1  0.833908  0.511101  0.908643  1
  O  O31  1  0.157136  0.489022  0.096572  1
  O  O32  1  0.699448  0.192601  0.847068  1
  O  O33  1  0.539985  0.542139  0.654133  1
  O  O34  1  0.292352  0.111763  0.578610  1
