# generated using pymatgen
data_LiSb(PO3)4
_symmetry_space_group_name_H-M   'P 1'
_cell_length_a   7.07222041
_cell_length_b   8.60659832
_cell_length_c   7.85561928
_cell_angle_alpha   90.00000000
_cell_angle_beta   91.09214787
_cell_angle_gamma   90.00000000
_symmetry_Int_Tables_number   1
_chemical_formula_structural   LiSb(PO3)4
_chemical_formula_sum   'Li2 Sb2 P8 O24'
_cell_volume   478.06708705
_cell_formula_units_Z   2
loop_
 _symmetry_equiv_pos_site_id
 _symmetry_equiv_pos_as_xyz
  1  'x, y, z'
loop_
 _atom_site_type_symbol
 _atom_site_label
 _atom_site_symmetry_multiplicity
 _atom_site_fract_x
 _atom_site_fract_y
 _atom_site_fract_z
 _atom_site_occupancy
  Li  Li0  1  0.286505  0.595631  0.652066  1
  Li  Li1  1  0.713495  0.095631  0.347934  1
  Sb  Sb2  1  0.758524  0.772134  0.770643  1
  Sb  Sb3  1  0.241476  0.272134  0.229357  1
  P  P4  1  0.566200  0.125990  0.905565  1
  P  P5  1  0.392557  0.991417  0.593070  1
  P  P6  1  0.008793  0.602340  0.396370  1
  P  P7  1  0.991207  0.102340  0.603630  1
  P  P8  1  0.433800  0.625990  0.094435  1
  P  P9  1  0.087314  0.827108  0.107485  1
  P  P10  1  0.912686  0.327108  0.892515  1
  P  P11  1  0.607443  0.491417  0.406930  1
  O  O12  1  0.170093  0.991526  0.623288  1
  O  O13  1  0.979301  0.300403  0.075052  1
  O  O14  1  0.937946  0.480646  0.810338  1
  O  O15  1  0.544931  0.334808  0.339736  1
  O  O16  1  0.062054  0.980646  0.189662  1
  O  O17  1  0.576577  0.653280  0.958684  1
  O  O18  1  0.423423  0.153280  0.041316  1
  O  O19  1  0.455069  0.834808  0.660264  1
  O  O20  1  0.690331  0.280313  0.886248  1
  O  O21  1  0.538276  0.628017  0.277426  1
  O  O22  1  0.313649  0.482225  0.068623  1
  O  O23  1  0.020699  0.800403  0.924948  1
  O  O24  1  0.560130  0.539662  0.583664  1
  O  O25  1  0.182520  0.499410  0.402657  1
  O  O26  1  0.309669  0.780313  0.113752  1
  O  O27  1  0.461724  0.128017  0.722574  1
  O  O28  1  0.000014  0.709270  0.546330  1
  O  O29  1  -0.000014  0.209270  0.453670  1
  O  O30  1  0.010947  0.190322  0.783403  1
  O  O31  1  0.989053  0.690322  0.216597  1
  O  O32  1  0.686351  0.982225  0.931377  1
  O  O33  1  0.829907  0.491526  0.376712  1
  O  O34  1  0.817480  0.999410  0.597343  1
  O  O35  1  0.439870  0.039662  0.416336  1
