# generated using pymatgen
data_LiCa9Co(PO4)7
_symmetry_space_group_name_H-M   'P 1'
_cell_length_a   13.80516422
_cell_length_b   13.80516434
_cell_length_c   13.80516470
_cell_angle_alpha   44.46673467
_cell_angle_beta   44.46673414
_cell_angle_gamma   44.46673489
_symmetry_Int_Tables_number   1
_chemical_formula_structural   LiCa9Co(PO4)7
_chemical_formula_sum   'Li2 Ca18 Co2 P14 O56'
_cell_volume   1173.74549743
_cell_formula_units_Z   2
loop_
 _symmetry_equiv_pos_site_id
 _symmetry_equiv_pos_as_xyz
  1  'x, y, z'
loop_
 _atom_site_type_symbol
 _atom_site_label
 _atom_site_symmetry_multiplicity
 _atom_site_fract_x
 _atom_site_fract_y
 _atom_site_fract_z
 _atom_site_occupancy
  Li  Li0  1  0.170413  0.170413  0.170413  1
  Li  Li1  1  0.670413  0.670413  0.670413  1
  Ca  Ca2  1  0.659631  0.074632  0.065482  1
  Ca  Ca3  1  0.967484  0.948636  0.557129  1
  Ca  Ca4  1  0.557129  0.967484  0.948636  1
  Ca  Ca5  1  0.159631  0.565482  0.574632  1
  Ca  Ca6  1  0.349233  0.908438  0.935168  1
  Ca  Ca7  1  0.565482  0.574632  0.159631  1
  Ca  Ca8  1  0.408438  0.849233  0.435168  1
  Ca  Ca9  1  0.057129  0.448636  0.467484  1
  Ca  Ca10  1  0.448636  0.467484  0.057129  1
  Ca  Ca11  1  0.574632  0.159631  0.565482  1
  Ca  Ca12  1  0.935168  0.349233  0.908438  1
  Ca  Ca13  1  0.467484  0.057129  0.448636  1
  Ca  Ca14  1  0.849233  0.435168  0.408438  1
  Ca  Ca15  1  0.435168  0.408438  0.849233  1
  Ca  Ca16  1  0.908438  0.935168  0.349233  1
  Ca  Ca17  1  0.065482  0.659631  0.074632  1
  Ca  Ca18  1  0.074632  0.065482  0.659631  1
  Ca  Ca19  1  0.948636  0.557129  0.967484  1
  Co  Co20  1  0.501872  0.501872  0.501872  1
  Co  Co21  1  0.001872  0.001872  0.001872  1
  P  P22  1  0.722562  0.187323  0.684777  1
  P  P23  1  0.827542  0.306007  0.272632  1
  P  P24  1  0.187323  0.684777  0.722562  1
  P  P25  1  0.684777  0.722562  0.187323  1
  P  P26  1  0.222562  0.184777  0.687323  1
  P  P27  1  0.327542  0.772632  0.806007  1
  P  P28  1  0.772632  0.806007  0.327542  1
  P  P29  1  0.270593  0.270593  0.270593  1
  P  P30  1  0.272632  0.827542  0.306007  1
  P  P31  1  0.806007  0.327542  0.772632  1
  P  P32  1  0.306007  0.272632  0.827542  1
  P  P33  1  0.184777  0.687323  0.222562  1
  P  P34  1  0.770593  0.770593  0.770593  1
  P  P35  1  0.687323  0.222562  0.184777  1
  O  O36  1  0.375080  0.374099  0.652263  1
  O  O37  1  0.130820  0.854579  0.668995  1
  O  O38  1  0.144915  0.589529  0.896060  1
  O  O39  1  0.615514  0.183658  0.173695  1
  O  O40  1  0.334791  0.613203  0.888156  1
  O  O41  1  0.929510  0.341039  0.249621  1
  O  O42  1  0.632083  0.383308  0.847095  1
  O  O43  1  0.636007  0.364649  0.617051  1
  O  O44  1  0.875080  0.152263  0.874099  1
  O  O45  1  0.834791  0.388156  0.113203  1
  O  O46  1  0.782683  0.885678  0.605402  1
  O  O47  1  0.864649  0.136007  0.117051  1
  O  O48  1  0.152263  0.874099  0.875080  1
  O  O49  1  0.183658  0.173695  0.615514  1
  O  O50  1  0.644915  0.396060  0.089529  1
  O  O51  1  0.249621  0.929510  0.341039  1
  O  O52  1  0.113203  0.834791  0.388156  1
  O  O53  1  0.605402  0.782683  0.885678  1
  O  O54  1  0.173695  0.615514  0.183658  1
  O  O55  1  0.429510  0.749621  0.841039  1
  O  O56  1  0.589529  0.896060  0.144915  1
  O  O57  1  0.854579  0.668995  0.130820  1
  O  O58  1  0.885678  0.605402  0.782683  1
  O  O59  1  0.089529  0.644915  0.396060  1
  O  O60  1  0.749621  0.841039  0.429510  1
  O  O61  1  0.105402  0.385678  0.282683  1
  O  O62  1  0.347095  0.883308  0.132083  1
  O  O63  1  0.630820  0.168995  0.354579  1
  O  O64  1  0.888156  0.334791  0.613203  1
  O  O65  1  0.341039  0.249621  0.929510  1
  O  O66  1  0.874099  0.875080  0.152263  1
  O  O67  1  0.374099  0.652263  0.375080  1
  O  O68  1  0.847095  0.632083  0.383308  1
  O  O69  1  0.617051  0.636007  0.364649  1
  O  O70  1  0.364649  0.617051  0.636007  1
  O  O71  1  0.168995  0.354579  0.630820  1
  O  O72  1  0.396060  0.089529  0.644915  1
  O  O73  1  0.841039  0.429510  0.749621  1
  O  O74  1  0.385678  0.282683  0.105402  1
  O  O75  1  0.812364  0.812364  0.812364  1
  O  O76  1  0.132083  0.347095  0.883308  1
  O  O77  1  0.312364  0.312364  0.312364  1
  O  O78  1  0.282683  0.105402  0.385678  1
  O  O79  1  0.896060  0.144915  0.589529  1
  O  O80  1  0.115514  0.673695  0.683658  1
  O  O81  1  0.383308  0.847095  0.632083  1
  O  O82  1  0.354579  0.630820  0.168995  1
  O  O83  1  0.668995  0.130820  0.854579  1
  O  O84  1  0.136007  0.117051  0.864649  1
  O  O85  1  0.883308  0.132083  0.347095  1
  O  O86  1  0.673695  0.683658  0.115514  1
  O  O87  1  0.652263  0.375080  0.374099  1
  O  O88  1  0.117051  0.864649  0.136007  1
  O  O89  1  0.613203  0.888156  0.334791  1
  O  O90  1  0.683658  0.115514  0.673695  1
  O  O91  1  0.388156  0.113203  0.834791  1
