# generated using pymatgen
data_MnPO4
_symmetry_space_group_name_H-M   'P 1'
_cell_length_a   5.29494836
_cell_length_b   9.29575625
_cell_length_c   5.96485181
_cell_angle_alpha   90.00000000
_cell_angle_beta   90.00000000
_cell_angle_gamma   90.46240743
_symmetry_Int_Tables_number   1
_chemical_formula_structural   MnPO4
_chemical_formula_sum   'Mn4 P4 O16'
_cell_volume   293.58372102
_cell_formula_units_Z   4
loop_
 _symmetry_equiv_pos_site_id
 _symmetry_equiv_pos_as_xyz
  1  'x, y, z'
loop_
 _atom_site_type_symbol
 _atom_site_label
 _atom_site_symmetry_multiplicity
 _atom_site_fract_x
 _atom_site_fract_y
 _atom_site_fract_z
 _atom_site_occupancy
  Mn  Mn0  1  0.667604  0.859478  0.880108  1
  Mn  Mn1  1  0.832396  0.640522  0.380108  1
  Mn  Mn2  1  0.167604  0.359478  0.619892  1
  Mn  Mn3  1  0.332396  0.140522  0.119892  1
  P  P4  1  0.244219  0.866519  0.162744  1
  P  P5  1  0.255781  0.633481  0.662744  1
  P  P6  1  0.744219  0.366519  0.337256  1
  P  P7  1  0.755781  0.133481  0.837256  1
  O  O8  1  0.504608  0.272374  0.334995  1
  O  O9  1  0.486955  0.772787  0.147095  1
  O  O10  1  0.251922  0.962285  0.943224  1
  O  O11  1  0.256808  0.987731  0.341878  1
  O  O12  1  0.743192  0.012269  0.658122  1
  O  O13  1  0.004608  0.772374  0.165005  1
  O  O14  1  0.513045  0.227213  0.852905  1
  O  O15  1  0.756808  0.487731  0.158122  1
  O  O16  1  0.248078  0.537715  0.443224  1
  O  O17  1  0.013045  0.727213  0.647095  1
  O  O18  1  0.495392  0.727626  0.665005  1
  O  O19  1  0.995392  0.227626  0.834995  1
  O  O20  1  0.748078  0.037715  0.056776  1
  O  O21  1  0.986955  0.272787  0.352905  1
  O  O22  1  0.751922  0.462285  0.556776  1
  O  O23  1  0.243192  0.512269  0.841878  1
