# generated using pymatgen
data_LiBi2P5O18
_symmetry_space_group_name_H-M   'P 1'
_cell_length_a   9.78988213
_cell_length_b   11.09873519
_cell_length_c   6.83409582
_cell_angle_alpha   92.77597660
_cell_angle_beta   92.50509720
_cell_angle_gamma   95.79024794
_symmetry_Int_Tables_number   1
_chemical_formula_structural   LiBi2P5O18
_chemical_formula_sum   'Li2 Bi4 P10 O36'
_cell_volume   737.02244166
_cell_formula_units_Z   2
loop_
 _symmetry_equiv_pos_site_id
 _symmetry_equiv_pos_as_xyz
  1  'x, y, z'
loop_
 _atom_site_type_symbol
 _atom_site_label
 _atom_site_symmetry_multiplicity
 _atom_site_fract_x
 _atom_site_fract_y
 _atom_site_fract_z
 _atom_site_occupancy
  Li  Li0  1  0.784883  0.302884  0.868049  1
  Li  Li1  1  0.215117  0.697116  0.131951  1
  Bi  Bi2  1  0.356879  0.398606  0.235750  1
  Bi  Bi3  1  0.766501  0.948081  0.331901  1
  Bi  Bi4  1  0.233499  0.051919  0.668099  1
  Bi  Bi5  1  0.643121  0.601394  0.764250  1
  P  P6  1  0.993192  0.593489  0.777857  1
  P  P7  1  0.417326  0.346727  0.727806  1
  P  P8  1  0.006808  0.406511  0.222143  1
  P  P9  1  0.272067  0.095716  0.169369  1
  P  P10  1  0.045635  0.791600  0.482955  1
  P  P11  1  0.954365  0.208400  0.517045  1
  P  P12  1  0.727933  0.904284  0.830631  1
  P  P13  1  0.573388  0.173659  0.157801  1
  P  P14  1  0.426612  0.826341  0.842199  1
  P  P15  1  0.582674  0.653273  0.272194  1
  O  O16  1  0.929661  0.102223  0.359201  1
  O  O17  1  0.340872  0.816062  0.016208  1
  O  O18  1  0.659128  0.183938  0.983792  1
  O  O19  1  0.430627  0.597897  0.214584  1
  O  O20  1  0.360736  0.421828  0.560859  1
  O  O21  1  0.180346  0.047564  0.989675  1
  O  O22  1  0.915314  0.505319  0.271012  1
  O  O23  1  0.157383  0.472630  0.221176  1
  O  O24  1  0.415784  0.210971  0.665583  1
  O  O25  1  0.168390  0.755542  0.383714  1
  O  O26  1  0.978693  0.678195  0.595500  1
  O  O27  1  0.569373  0.402103  0.785416  1
  O  O28  1  0.327921  0.363474  0.907265  1
  O  O29  1  0.261054  0.009892  0.338601  1
  O  O30  1  0.738946  0.990108  0.661399  1
  O  O31  1  0.021307  0.321805  0.404500  1
  O  O32  1  0.955801  0.329929  0.040558  1
  O  O33  1  0.639264  0.578172  0.439141  1
  O  O34  1  0.380663  0.910063  0.682506  1
  O  O35  1  0.758157  0.779074  0.745063  1
  O  O36  1  0.831610  0.244458  0.616286  1
  O  O37  1  0.578527  0.889878  0.919643  1
  O  O38  1  0.842617  0.527370  0.778824  1
  O  O39  1  0.241843  0.220926  0.254937  1
  O  O40  1  0.548151  0.297769  0.259837  1
  O  O41  1  0.070339  0.897777  0.640799  1
  O  O42  1  0.044199  0.670071  0.959442  1
  O  O43  1  0.584216  0.789029  0.334417  1
  O  O44  1  0.619337  0.089937  0.317494  1
  O  O45  1  0.421473  0.110122  0.080357  1
  O  O46  1  0.068666  0.180605  0.668599  1
  O  O47  1  0.819654  0.952436  0.010325  1
  O  O48  1  0.451849  0.702231  0.740163  1
  O  O49  1  0.931334  0.819395  0.331401  1
  O  O50  1  0.672079  0.636526  0.092735  1
  O  O51  1  0.084686  0.494681  0.728988  1
