# generated using pymatgen
data_Sb(PO3)4
_symmetry_space_group_name_H-M   'P 1'
_cell_length_a   7.36318721
_cell_length_b   7.36232481
_cell_length_c   9.94600184
_cell_angle_alpha   79.87432600
_cell_angle_beta   71.17290928
_cell_angle_gamma   109.07672005
_symmetry_Int_Tables_number   1
_chemical_formula_structural   Sb(PO3)4
_chemical_formula_sum   'Sb2 P8 O24'
_cell_volume   457.83540573
_cell_formula_units_Z   2
loop_
 _symmetry_equiv_pos_site_id
 _symmetry_equiv_pos_as_xyz
  1  'x, y, z'
loop_
 _atom_site_type_symbol
 _atom_site_label
 _atom_site_symmetry_multiplicity
 _atom_site_fract_x
 _atom_site_fract_y
 _atom_site_fract_z
 _atom_site_occupancy
  Sb  Sb0  1  0.811012  0.060941  0.249985  1
  Sb  Sb1  1  0.188988  0.939059  0.750015  1
  P  P2  1  0.262942  0.720553  0.480496  1
  P  P3  1  0.008989  0.308136  0.699376  1
  P  P4  1  0.299065  0.256576  0.980447  1
  P  P5  1  0.492402  0.291474  0.199427  1
  P  P6  1  0.737058  0.279447  0.519504  1
  P  P7  1  0.700935  0.743424  0.019553  1
  P  P8  1  0.507598  0.708526  0.800573  1
  P  P9  1  0.991011  0.691864  0.300624  1
  O  O10  1  0.254568  0.088491  0.912571  1
  O  O11  1  0.964899  0.347577  0.842740  1
  O  O12  1  0.299024  0.725898  0.820025  1
  O  O13  1  0.865776  0.201237  0.409854  1
  O  O14  1  0.448409  0.226650  0.060090  1
  O  O15  1  0.134224  0.798763  0.590146  1
  O  O16  1  0.745432  0.911509  0.087429  1
  O  O17  1  0.786762  0.508551  0.440011  1
  O  O18  1  0.184466  0.704831  0.350340  1
  O  O19  1  0.445012  0.465355  0.850312  1
  O  O20  1  0.309413  0.192014  0.342884  1
  O  O21  1  0.035101  0.652423  0.157260  1
  O  O22  1  0.815534  0.295169  0.649660  1
  O  O23  1  0.954315  0.881114  0.320113  1
  O  O24  1  0.498928  0.832901  0.412723  1
  O  O25  1  0.045685  0.118886  0.679887  1
  O  O26  1  0.554988  0.534645  0.149688  1
  O  O27  1  0.213238  0.491449  0.559989  1
  O  O28  1  0.690587  0.807986  0.657116  1
  O  O29  1  0.700976  0.274102  0.179975  1
  O  O30  1  0.501072  0.167099  0.587277  1
  O  O31  1  0.111079  0.275590  0.090018  1
  O  O32  1  0.551591  0.773350  0.939910  1
  O  O33  1  0.888921  0.724410  0.909982  1
