# generated using pymatgen
data_MnPO4
_symmetry_space_group_name_H-M   'P 1'
_cell_length_a   9.70897095
_cell_length_b   5.62352899
_cell_length_c   6.33029747
_cell_angle_alpha   103.31237277
_cell_angle_beta   103.38363434
_cell_angle_gamma   79.73838388
_symmetry_Int_Tables_number   1
_chemical_formula_structural   MnPO4
_chemical_formula_sum   'Mn4 P4 O16'
_cell_volume   324.34673434
_cell_formula_units_Z   4
loop_
 _symmetry_equiv_pos_site_id
 _symmetry_equiv_pos_as_xyz
  1  'x, y, z'
loop_
 _atom_site_type_symbol
 _atom_site_label
 _atom_site_symmetry_multiplicity
 _atom_site_fract_x
 _atom_site_fract_y
 _atom_site_fract_z
 _atom_site_occupancy
  Mn  Mn0  1  0.673840  0.128969  0.394817  1
  Mn  Mn1  1  0.078475  0.274476  0.324426  1
  Mn  Mn2  1  0.326160  0.871031  0.605183  1
  Mn  Mn3  1  0.921525  0.725524  0.675574  1
  P  P4  1  0.950938  0.815342  0.199220  1
  P  P5  1  0.414878  0.315604  0.667669  1
  P  P6  1  0.049062  0.184658  0.800780  1
  P  P7  1  0.585122  0.684396  0.332331  1
  O  O8  1  0.098854  0.899301  0.231786  1
  O  O9  1  0.960332  0.621031  0.350755  1
  O  O10  1  0.354945  0.587448  0.742415  1
  O  O11  1  0.039668  0.378969  0.649245  1
  O  O12  1  0.425770  0.152930  0.836536  1
  O  O13  1  0.645055  0.412552  0.257585  1
  O  O14  1  0.856016  0.049855  0.290310  1
  O  O15  1  0.698108  0.817105  0.530448  1
  O  O16  1  0.891138  0.694229  0.960072  1
  O  O17  1  0.574230  0.847070  0.163464  1
  O  O18  1  0.108862  0.305771  0.039928  1
  O  O19  1  0.301892  0.182895  0.469552  1
  O  O20  1  0.143984  0.950145  0.709690  1
  O  O21  1  0.559507  0.302119  0.601201  1
  O  O22  1  0.440493  0.697881  0.398799  1
  O  O23  1  0.901146  0.100699  0.768214  1
