# generated using pymatgen
data_LiBi(PO3)4
_symmetry_space_group_name_H-M   'P 1'
_cell_length_a   10.63170586
_cell_length_b   9.20154779
_cell_length_c   10.37744992
_cell_angle_alpha   90.00000000
_cell_angle_beta   104.18417184
_cell_angle_gamma   90.00000000
_symmetry_Int_Tables_number   1
_chemical_formula_structural   LiBi(PO3)4
_chemical_formula_sum   'Li4 Bi4 P16 O48'
_cell_volume   984.25619706
_cell_formula_units_Z   4
loop_
 _symmetry_equiv_pos_site_id
 _symmetry_equiv_pos_as_xyz
  1  'x, y, z'
loop_
 _atom_site_type_symbol
 _atom_site_label
 _atom_site_symmetry_multiplicity
 _atom_site_fract_x
 _atom_site_fract_y
 _atom_site_fract_z
 _atom_site_occupancy
  Li  Li0  1  0.657674  0.565816  0.500627  1
  Li  Li1  1  0.842326  0.065816  0.999373  1
  Li  Li2  1  0.342326  0.434184  0.499373  1
  Li  Li3  1  0.157674  0.934184  0.000627  1
  Bi  Bi4  1  0.006180  0.716586  0.196484  1
  Bi  Bi5  1  0.993820  0.283414  0.803516  1
  Bi  Bi6  1  0.493820  0.216586  0.303516  1
  Bi  Bi7  1  0.506180  0.783414  0.696484  1
  P  P8  1  0.761768  0.491964  0.259810  1
  P  P9  1  0.152204  0.102321  0.260743  1
  P  P10  1  0.652204  0.397679  0.760743  1
  P  P11  1  0.185410  0.895764  0.489772  1
  P  P12  1  0.814590  0.104236  0.510228  1
  P  P13  1  0.040785  0.668605  0.841944  1
  P  P14  1  0.347796  0.602321  0.239257  1
  P  P15  1  0.314590  0.395764  0.010228  1
  P  P16  1  0.685410  0.604236  0.989772  1
  P  P17  1  0.959215  0.331395  0.158056  1
  P  P18  1  0.459215  0.168605  0.658056  1
  P  P19  1  0.540785  0.831395  0.341944  1
  P  P20  1  0.738232  0.991964  0.240190  1
  P  P21  1  0.847796  0.897679  0.739257  1
  P  P22  1  0.238232  0.508036  0.740190  1
  P  P23  1  0.261768  0.008036  0.759810  1
  O  O24  1  0.323606  0.845149  0.519142  1
  O  O25  1  0.676394  0.154851  0.480858  1
  O  O26  1  0.582253  0.760524  0.477568  1
  O  O27  1  0.038185  0.468556  0.176243  1
  O  O28  1  0.608460  0.519470  0.662181  1
  O  O29  1  0.316806  0.556951  0.646079  1
  O  O30  1  0.683194  0.443049  0.353921  1
  O  O31  1  0.830450  0.350778  0.212882  1
  O  O32  1  0.265849  0.191548  0.246410  1
  O  O33  1  0.842925  0.041396  0.374174  1
  O  O34  1  0.234151  0.691548  0.253590  1
  O  O35  1  0.076176  0.797003  0.423740  1
  O  O36  1  0.176394  0.345149  0.980858  1
  O  O37  1  0.423824  0.297003  0.076260  1
  O  O38  1  0.538185  0.031444  0.676243  1
  O  O39  1  0.362399  0.891816  0.808543  1
  O  O40  1  0.917747  0.260524  0.022432  1
  O  O41  1  0.672779  0.452268  0.909748  1
  O  O42  1  0.183194  0.056951  0.853921  1
  O  O43  1  0.669550  0.850778  0.287118  1
  O  O44  1  0.862399  0.608184  0.308543  1
  O  O45  1  0.816806  0.943049  0.146079  1
  O  O46  1  0.137601  0.391816  0.691457  1
  O  O47  1  0.157075  0.958604  0.625826  1
  O  O48  1  0.765849  0.308452  0.746410  1
  O  O49  1  0.657075  0.541396  0.125826  1
  O  O50  1  0.108460  0.980530  0.162181  1
  O  O51  1  0.576176  0.702997  0.923740  1
  O  O52  1  0.169550  0.649222  0.787118  1
  O  O53  1  0.827221  0.952268  0.590252  1
  O  O54  1  0.467368  0.711264  0.238894  1
  O  O55  1  0.417747  0.239476  0.522432  1
  O  O56  1  0.032632  0.211264  0.261106  1
  O  O57  1  0.327221  0.547732  0.090252  1
  O  O58  1  0.891540  0.019470  0.837819  1
  O  O59  1  0.923824  0.202997  0.576260  1
  O  O60  1  0.391540  0.480530  0.337819  1
  O  O61  1  0.330450  0.149222  0.712882  1
  O  O62  1  0.823606  0.654851  0.019142  1
  O  O63  1  0.967368  0.788736  0.738894  1
  O  O64  1  0.172779  0.047732  0.409748  1
  O  O65  1  0.637601  0.108184  0.191457  1
  O  O66  1  0.532632  0.288736  0.761106  1
  O  O67  1  0.961815  0.531444  0.823757  1
  O  O68  1  0.734151  0.808452  0.753590  1
  O  O69  1  0.082253  0.739476  0.977568  1
  O  O70  1  0.461815  0.968556  0.323757  1
  O  O71  1  0.342925  0.458604  0.874174  1
