# generated using pymatgen
data_Li2Ti3(BiO3)4
_symmetry_space_group_name_H-M   'P 1'
_cell_length_a   5.71900834
_cell_length_b   5.71097616
_cell_length_c   16.68345716
_cell_angle_alpha   99.85508955
_cell_angle_beta   90.00000000
_cell_angle_gamma   90.00000000
_symmetry_Int_Tables_number   1
_chemical_formula_structural   Li2Ti3(BiO3)4
_chemical_formula_sum   'Li4 Ti6 Bi8 O24'
_cell_volume   536.85973502
_cell_formula_units_Z   2
loop_
 _symmetry_equiv_pos_site_id
 _symmetry_equiv_pos_as_xyz
  1  'x, y, z'
loop_
 _atom_site_type_symbol
 _atom_site_label
 _atom_site_symmetry_multiplicity
 _atom_site_fract_x
 _atom_site_fract_y
 _atom_site_fract_z
 _atom_site_occupancy
  Li  Li0  1  0.228871  0.073356  0.637133  1
  Li  Li1  1  0.771129  0.436223  0.362867  1
  Li  Li2  1  0.271129  0.573356  0.637133  1
  Li  Li3  1  0.728871  0.936223  0.362867  1
  Ti  Ti4  1  0.979881  0.634095  0.236878  1
  Ti  Ti5  1  0.500000  0.988269  1.000000  1
  Ti  Ti6  1  0.020119  0.397217  0.763122  1
  Ti  Ti7  1  0.479881  0.897217  0.763122  1
  Ti  Ti8  1  0.520119  0.134095  0.236878  1
  Ti  Ti9  1  0.000000  0.488269  1.000000  1
  Bi  Bi10  1  0.372836  0.680655  0.423873  1
  Bi  Bi11  1  0.030321  0.067799  0.125041  1
  Bi  Bi12  1  0.969679  0.942758  0.874959  1
  Bi  Bi13  1  0.469679  0.567799  0.125041  1
  Bi  Bi14  1  0.872836  0.756782  0.576127  1
  Bi  Bi15  1  0.127164  0.180655  0.423873  1
  Bi  Bi16  1  0.530321  0.442758  0.874959  1
  Bi  Bi17  1  0.627164  0.256782  0.576127  1
  O  O18  1  0.261394  0.988119  0.517381  1
  O  O19  1  0.919330  0.543793  0.115245  1
  O  O20  1  0.220872  0.661373  0.753490  1
  O  O21  1  0.720872  0.407883  0.246510  1
  O  O22  1  0.247975  0.246112  0.026185  1
  O  O23  1  0.279128  0.161373  0.753490  1
  O  O24  1  0.779128  0.907883  0.246510  1
  O  O25  1  0.419330  0.928548  0.884755  1
  O  O26  1  0.758351  0.139723  0.790624  1
  O  O27  1  0.241649  0.349100  0.209376  1
  O  O28  1  0.080670  0.428548  0.884755  1
  O  O29  1  0.024985  0.669940  0.352352  1
  O  O30  1  0.238606  0.488119  0.517381  1
  O  O31  1  0.741649  0.639723  0.790624  1
  O  O32  1  0.752025  0.219927  0.973815  1
  O  O33  1  0.524985  0.817588  0.647648  1
  O  O34  1  0.252025  0.746112  0.026185  1
  O  O35  1  0.475015  0.169940  0.352352  1
  O  O36  1  0.738606  0.470738  0.482619  1
  O  O37  1  0.580670  0.043793  0.115245  1
  O  O38  1  0.258351  0.849100  0.209376  1
  O  O39  1  0.761394  0.970738  0.482619  1
  O  O40  1  0.747975  0.719927  0.973815  1
  O  O41  1  0.975015  0.317588  0.647648  1
