# generated using pymatgen
data_LiSb2(PO4)3
_symmetry_space_group_name_H-M   'P 1'
_cell_length_a   8.77710749
_cell_length_b   12.73887977
_cell_length_c   9.06964415
_cell_angle_alpha   90.00000000
_cell_angle_beta   90.00000000
_cell_angle_gamma   90.05622258
_symmetry_Int_Tables_number   1
_chemical_formula_structural   LiSb2(PO4)3
_chemical_formula_sum   'Li4 Sb8 P12 O48'
_cell_volume   1014.08111351
_cell_formula_units_Z   4
loop_
 _symmetry_equiv_pos_site_id
 _symmetry_equiv_pos_as_xyz
  1  'x, y, z'
loop_
 _atom_site_type_symbol
 _atom_site_label
 _atom_site_symmetry_multiplicity
 _atom_site_fract_x
 _atom_site_fract_y
 _atom_site_fract_z
 _atom_site_occupancy
  Li  Li0  1  0.714758  0.307254  0.761097  1
  Li  Li1  1  0.785242  0.192746  0.261097  1
  Li  Li2  1  0.285242  0.692746  0.238903  1
  Li  Li3  1  0.214758  0.807254  0.738903  1
  Sb  Sb4  1  0.745340  0.397334  0.452766  1
  Sb  Sb5  1  0.254660  0.602666  0.547234  1
  Sb  Sb6  1  0.245340  0.897334  0.047234  1
  Sb  Sb7  1  0.745814  0.887559  0.544322  1
  Sb  Sb8  1  0.245814  0.387559  0.955678  1
  Sb  Sb9  1  0.254186  0.112441  0.455678  1
  Sb  Sb10  1  0.754660  0.102666  0.952766  1
  Sb  Sb11  1  0.754186  0.612441  0.044322  1
  P  P12  1  0.617152  0.657795  0.393979  1
  P  P13  1  0.393501  0.641081  0.910381  1
  P  P14  1  0.551797  0.007440  0.260622  1
  P  P15  1  0.117152  0.157795  0.106021  1
  P  P16  1  0.448203  0.992560  0.739378  1
  P  P17  1  0.051797  0.507440  0.239378  1
  P  P18  1  0.882848  0.842205  0.893979  1
  P  P19  1  0.106499  0.858919  0.410381  1
  P  P20  1  0.893501  0.141081  0.589619  1
  P  P21  1  0.606499  0.358919  0.089619  1
  P  P22  1  0.948203  0.492560  0.760622  1
  P  P23  1  0.382848  0.342205  0.606021  1
  O  O24  1  0.311920  0.325603  0.762902  1
  O  O25  1  0.337763  0.448433  0.537532  1
  O  O26  1  0.159130  0.581782  0.324948  1
  O  O27  1  0.043722  0.560019  0.657956  1
  O  O28  1  0.662237  0.551567  0.462468  1
  O  O29  1  0.321599  0.698234  0.039453  1
  O  O30  1  0.456278  0.939981  0.157956  1
  O  O31  1  0.956278  0.439981  0.342044  1
  O  O32  1  0.955690  0.579668  0.134937  1
  O  O33  1  0.688080  0.674397  0.237098  1
  O  O34  1  0.837763  0.948433  0.962468  1
  O  O35  1  0.178401  0.801766  0.539453  1
  O  O36  1  0.653313  0.932909  0.355030  1
  O  O37  1  0.678401  0.301766  0.960547  1
  O  O38  1  0.161239  0.977049  0.396029  1
  O  O39  1  0.144398  0.809249  0.261372  1
  O  O40  1  0.153313  0.432909  0.144970  1
  O  O41  1  0.185670  0.240996  0.997986  1
  O  O42  1  0.314330  0.259004  0.497986  1
  O  O43  1  0.340870  0.918218  0.824948  1
  O  O44  1  0.338761  0.522951  0.896029  1
  O  O45  1  0.661239  0.477049  0.103971  1
  O  O46  1  0.056054  0.831439  0.884629  1
  O  O47  1  0.162237  0.051567  0.037532  1
  O  O48  1  0.071825  0.140787  0.576593  1
  O  O49  1  0.044310  0.420332  0.865063  1
  O  O50  1  0.355602  0.690751  0.761372  1
  O  O51  1  0.188080  0.174397  0.262902  1
  O  O52  1  0.543722  0.060019  0.842044  1
  O  O53  1  0.428175  0.359213  0.076593  1
  O  O54  1  0.455690  0.079668  0.365063  1
  O  O55  1  0.544310  0.920332  0.634937  1
  O  O56  1  0.838761  0.022951  0.603971  1
  O  O57  1  0.571825  0.640787  0.923407  1
  O  O58  1  0.846687  0.567091  0.855030  1
  O  O59  1  0.855602  0.190751  0.738628  1
  O  O60  1  0.814330  0.759004  0.002014  1
  O  O61  1  0.840870  0.418218  0.675052  1
  O  O62  1  0.928175  0.859213  0.423407  1
  O  O63  1  0.685670  0.740996  0.502014  1
  O  O64  1  0.644398  0.309249  0.238628  1
  O  O65  1  0.443946  0.668561  0.384629  1
  O  O66  1  0.659130  0.081782  0.175052  1
  O  O67  1  0.821599  0.198234  0.460547  1
  O  O68  1  0.556054  0.331439  0.615371  1
  O  O69  1  0.811920  0.825603  0.737098  1
  O  O70  1  0.943946  0.168561  0.115371  1
  O  O71  1  0.346687  0.067091  0.644970  1
