# generated using pymatgen
data_NiP2O7
_symmetry_space_group_name_H-M   'P 1'
_cell_length_a   6.38004871
_cell_length_b   10.90927631
_cell_length_c   9.60450053
_cell_angle_alpha   63.19154699
_cell_angle_beta   105.58414804
_cell_angle_gamma   94.62135375
_symmetry_Int_Tables_number   1
_chemical_formula_structural   NiP2O7
_chemical_formula_sum   'Ni4 P8 O28'
_cell_volume   574.06458250
_cell_formula_units_Z   4
loop_
 _symmetry_equiv_pos_site_id
 _symmetry_equiv_pos_as_xyz
  1  'x, y, z'
loop_
 _atom_site_type_symbol
 _atom_site_label
 _atom_site_symmetry_multiplicity
 _atom_site_fract_x
 _atom_site_fract_y
 _atom_site_fract_z
 _atom_site_occupancy
  Ni  Ni0  1  0.369087  0.253018  0.498497  1
  Ni  Ni1  1  0.711337  0.776084  0.106540  1
  Ni  Ni2  1  0.294080  0.225718  0.888283  1
  Ni  Ni3  1  0.637476  0.750634  0.486164  1
  P  P4  1  0.096617  0.209092  0.179816  1
  P  P5  1  0.900033  0.791137  0.811080  1
  P  P6  1  0.275905  0.968273  0.801777  1
  P  P7  1  0.883891  0.306861  0.546875  1
  P  P8  1  0.579343  0.543836  0.303540  1
  P  P9  1  0.116202  0.704237  0.440526  1
  P  P10  1  0.723659  0.032032  0.189350  1
  P  P11  1  0.414963  0.465074  0.682756  1
  O  O12  1  0.139091  0.174369  0.053976  1
  O  O13  1  0.016675  0.649284  0.887444  1
  O  O14  1  0.942005  0.088257  0.267330  1
  O  O15  1  0.991765  0.293475  0.715827  1
  O  O16  1  0.692002  0.213755  0.547875  1
  O  O17  1  0.196365  0.543380  0.548611  1
  O  O18  1  0.046002  0.285676  0.469004  1
  O  O19  1  0.851753  0.829565  0.932876  1
  O  O20  1  0.626318  0.944875  0.329659  1
  O  O21  1  0.792362  0.464348  0.443827  1
  O  O22  1  0.208266  0.049325  0.881556  1
  O  O23  1  0.425742  0.320499  0.686869  1
  O  O24  1  0.953753  0.731491  0.517710  1
  O  O25  1  0.793487  0.952041  0.109380  1
  O  O26  1  0.014292  0.718018  0.270841  1
  O  O27  1  0.414910  0.845553  0.943663  1
  O  O28  1  0.583932  0.155835  0.052746  1
  O  O29  1  0.294990  0.206882  0.310786  1
  O  O30  1  0.320409  0.786267  0.455276  1
  O  O31  1  0.573015  0.688540  0.300946  1
  O  O32  1  0.386459  0.457587  0.336100  1
  O  O33  1  0.630918  0.588836  0.138949  1
  O  O34  1  0.978818  0.349713  0.111538  1
  O  O35  1  0.057864  0.910647  0.726391  1
  O  O36  1  0.705701  0.794172  0.676763  1
  O  O37  1  0.374006  0.418326  0.850704  1
  O  O38  1  0.371715  0.055732  0.663531  1
  O  O39  1  0.605386  0.553717  0.642713  1
