# generated using pymatgen
data_Sb(PO3)4
_symmetry_space_group_name_H-M   'P 1'
_cell_length_a   13.14319398
_cell_length_b   8.35696782
_cell_length_c   9.67042119
_cell_angle_alpha   90.00000000
_cell_angle_beta   90.00000000
_cell_angle_gamma   90.00000000
_symmetry_Int_Tables_number   1
_chemical_formula_structural   Sb(PO3)4
_chemical_formula_sum   'Sb4 P16 O48'
_cell_volume   1062.17246156
_cell_formula_units_Z   4
loop_
 _symmetry_equiv_pos_site_id
 _symmetry_equiv_pos_as_xyz
  1  'x, y, z'
loop_
 _atom_site_type_symbol
 _atom_site_label
 _atom_site_symmetry_multiplicity
 _atom_site_fract_x
 _atom_site_fract_y
 _atom_site_fract_z
 _atom_site_occupancy
  Sb  Sb0  1  0.000000  0.640010  0.250000  1
  Sb  Sb1  1  0.500000  0.859990  0.750000  1
  Sb  Sb2  1  0.000000  0.359990  0.750000  1
  Sb  Sb3  1  0.500000  0.140010  0.250000  1
  P  P4  1  0.137567  0.826324  0.002526  1
  P  P5  1  0.156341  0.534662  0.511586  1
  P  P6  1  0.343659  0.965338  0.011586  1
  P  P7  1  0.656341  0.965338  0.488414  1
  P  P8  1  0.637567  0.673676  0.997474  1
  P  P9  1  0.137567  0.173676  0.502526  1
  P  P10  1  0.637567  0.326324  0.497474  1
  P  P11  1  0.156341  0.465338  0.011586  1
  P  P12  1  0.362433  0.673676  0.502526  1
  P  P13  1  0.862433  0.826324  0.497474  1
  P  P14  1  0.843659  0.534662  0.988414  1
  P  P15  1  0.862433  0.173676  0.997474  1
  P  P16  1  0.362433  0.326324  0.002526  1
  P  P17  1  0.843659  0.465338  0.488414  1
  P  P18  1  0.343659  0.034662  0.511586  1
  P  P19  1  0.656341  0.034662  0.988414  1
  O  O20  1  0.436000  0.315532  0.125910  1
  O  O21  1  0.393042  0.408970  0.875756  1
  O  O22  1  0.678904  0.145405  0.528762  1
  O  O23  1  0.074829  0.546546  0.622946  1
  O  O24  1  0.821096  0.645405  0.528762  1
  O  O25  1  0.564000  0.315532  0.374090  1
  O  O26  1  0.425171  0.953454  0.122946  1
  O  O27  1  0.393042  0.591030  0.375756  1
  O  O28  1  0.133119  0.629113  0.380198  1
  O  O29  1  0.925171  0.453454  0.377054  1
  O  O30  1  0.925171  0.546546  0.877054  1
  O  O31  1  0.759882  0.098685  0.925717  1
  O  O32  1  0.740118  0.401315  0.425717  1
  O  O33  1  0.321096  0.145405  0.971238  1
  O  O34  1  0.936000  0.184467  0.874090  1
  O  O35  1  0.759882  0.901315  0.425717  1
  O  O36  1  0.106958  0.908970  0.875756  1
  O  O37  1  0.106958  0.091030  0.375756  1
  O  O38  1  0.259882  0.401315  0.074283  1
  O  O39  1  0.936000  0.815533  0.374090  1
  O  O40  1  0.606958  0.591030  0.124244  1
  O  O41  1  0.866881  0.629113  0.119802  1
  O  O42  1  0.366881  0.870887  0.880198  1
  O  O43  1  0.178904  0.645405  0.971238  1
  O  O44  1  0.259882  0.598685  0.574283  1
  O  O45  1  0.821096  0.354595  0.028762  1
  O  O46  1  0.425171  0.046546  0.622946  1
  O  O47  1  0.133119  0.370887  0.880198  1
  O  O48  1  0.606958  0.408970  0.624244  1
  O  O49  1  0.574829  0.953454  0.377054  1
  O  O50  1  0.678904  0.854595  0.028762  1
  O  O51  1  0.740118  0.598685  0.925717  1
  O  O52  1  0.564000  0.684467  0.874090  1
  O  O53  1  0.893042  0.091030  0.124244  1
  O  O54  1  0.574829  0.046546  0.877054  1
  O  O55  1  0.064000  0.815533  0.125910  1
  O  O56  1  0.633119  0.129113  0.119802  1
  O  O57  1  0.074829  0.453454  0.122946  1
  O  O58  1  0.240118  0.098685  0.574283  1
  O  O59  1  0.321096  0.854595  0.471238  1
  O  O60  1  0.064000  0.184467  0.625910  1
  O  O61  1  0.633119  0.870887  0.619802  1
  O  O62  1  0.178904  0.354595  0.471238  1
  O  O63  1  0.240118  0.901315  0.074283  1
  O  O64  1  0.893042  0.908970  0.624244  1
  O  O65  1  0.366881  0.129113  0.380198  1
  O  O66  1  0.436000  0.684467  0.625910  1
  O  O67  1  0.866881  0.370887  0.619802  1
