# generated using pymatgen
data_ScMo3O8
_symmetry_space_group_name_H-M   'P 1'
_cell_length_a   6.08429554
_cell_length_b   6.06773650
_cell_length_c   4.63847030
_cell_angle_alpha   89.76435748
_cell_angle_beta   89.58754856
_cell_angle_gamma   119.45469047
_symmetry_Int_Tables_number   1
_chemical_formula_structural   ScMo3O8
_chemical_formula_sum   'Sc1 Mo3 O8'
_cell_volume   149.09898078
_cell_formula_units_Z   1
loop_
 _symmetry_equiv_pos_site_id
 _symmetry_equiv_pos_as_xyz
  1  'x, y, z'
loop_
 _atom_site_type_symbol
 _atom_site_label
 _atom_site_symmetry_multiplicity
 _atom_site_fract_x
 _atom_site_fract_y
 _atom_site_fract_z
 _atom_site_occupancy
  O  O0  1  0.504417  0.001781  0.486388  1
  O  O1  1  0.676698  0.348551  0.021792  1
  O  O2  1  0.680018  0.830488  0.020801  1
  O  O3  1  0.165061  0.835473  0.020173  1
  O  O4  1  0.989043  0.504560  0.483746  1
  O  O5  1  0.993475  0.982205  0.493117  1
  O  O6  1  0.163806  0.329249  0.017250  1
  O  O7  1  0.500855  0.496644  0.485683  1
  Sc  Sc8  1  0.327412  0.664894  0.748783  1
  Mo  Mo9  1  0.829205  0.670819  0.247315  1
  Mo  Mo10  1  0.839008  0.172104  0.260538  1
  Mo  Mo11  1  0.333082  0.165312  0.253525  1
