# generated using pymatgen
data_Li2Mo(PO3)8
_symmetry_space_group_name_H-M   'P 1'
_cell_length_a   7.34408904
_cell_length_b   7.26102116
_cell_length_c   9.88594374
_cell_angle_alpha   70.66469647
_cell_angle_beta   80.79470711
_cell_angle_gamma   110.41165835
_symmetry_Int_Tables_number   1
_chemical_formula_structural   Li2Mo(PO3)8
_chemical_formula_sum   'Li2 Mo1 P8 O24'
_cell_volume   443.01532078
_cell_formula_units_Z   1
loop_
 _symmetry_equiv_pos_site_id
 _symmetry_equiv_pos_as_xyz
  1  'x, y, z'
loop_
 _atom_site_type_symbol
 _atom_site_label
 _atom_site_symmetry_multiplicity
 _atom_site_fract_x
 _atom_site_fract_y
 _atom_site_fract_z
 _atom_site_occupancy
  Li  Li0  1  0.990595  0.011848  0.031802  1
  Li  Li1  1  0.938857  0.192928  0.256445  1
  Mo  Mo2  1  0.054815  0.805007  0.748361  1
  P  P3  1  0.290326  0.483754  0.704612  1
  P  P4  1  0.313015  0.016241  0.189983  1
  P  P5  1  0.731957  0.262775  0.975328  1
  P  P6  1  0.706413  0.502566  0.312712  1
  P  P7  1  0.244446  0.297753  0.476260  1
  P  P8  1  0.273183  0.721102  0.021814  1
  P  P9  1  0.689297  0.993310  0.793282  1
  P  P10  1  0.740925  0.712847  0.522574  1
  O  O11  1  0.246338  0.091235  0.597521  1
  O  O12  1  0.509436  0.792805  0.937661  1
  O  O13  1  0.357284  0.971217  0.336936  1
  O  O14  1  0.186928  0.849095  0.908728  1
  O  O15  1  0.463677  0.437999  0.356395  1
  O  O16  1  0.244001  0.677059  0.697980  1
  O  O17  1  0.874108  0.939247  0.812582  1
  O  O18  1  0.741836  0.314096  0.308141  1
  O  O19  1  0.643900  0.034878  0.650477  1
  O  O20  1  0.852011  0.514149  0.898966  1
  O  O21  1  0.908991  0.747457  0.599672  1
  O  O22  1  0.723558  0.201054  0.833558  1
  O  O23  1  0.767287  0.546485  0.453621  1
  O  O24  1  0.505352  0.224198  0.048685  1
  O  O25  1  0.807954  0.137193  0.082319  1
  O  O26  1  0.532477  0.559283  0.664960  1
  O  O27  1  0.233488  0.447738  0.562096  1
  O  O28  1  0.805453  0.699238  0.166584  1
  O  O29  1  0.160973  0.485522  0.089214  1
  O  O30  1  0.079625  0.252903  0.409926  1
  O  O31  1  0.186905  0.287296  0.846481  1
  O  O32  1  0.128428  0.055311  0.180258  1
  O  O33  1  0.728554  0.895836  0.410381  1
  O  O34  1  0.298100  0.816944  0.144430  1
