# generated using pymatgen
data_LiSb(PO3)4
_symmetry_space_group_name_H-M   'P 1'
_cell_length_a   5.53612567
_cell_length_b   10.64720217
_cell_length_c   10.64720228
_cell_angle_alpha   69.21348067
_cell_angle_beta   99.24843779
_cell_angle_gamma   99.24843623
_symmetry_Int_Tables_number   1
_chemical_formula_structural   LiSb(PO3)4
_chemical_formula_sum   'Li2 Sb2 P8 O24'
_cell_volume   575.44661105
_cell_formula_units_Z   2
loop_
 _symmetry_equiv_pos_site_id
 _symmetry_equiv_pos_as_xyz
  1  'x, y, z'
loop_
 _atom_site_type_symbol
 _atom_site_label
 _atom_site_symmetry_multiplicity
 _atom_site_fract_x
 _atom_site_fract_y
 _atom_site_fract_z
 _atom_site_occupancy
  Li  Li0  1  0.611757  0.562122  0.562122  1
  Li  Li1  1  0.388243  0.437878  0.437878  1
  Sb  Sb2  1  0.000000  0.000000  0.500000  1
  Sb  Sb3  1  0.000000  0.500000  0.000000  1
  P  P4  1  0.178641  0.769256  0.376134  1
  P  P5  1  0.545888  0.946357  0.708145  1
  P  P6  1  0.454112  0.053643  0.291855  1
  P  P7  1  0.178641  0.376134  0.769256  1
  P  P8  1  0.821359  0.230744  0.623866  1
  P  P9  1  0.454112  0.291855  0.053643  1
  P  P10  1  0.545888  0.708145  0.946357  1
  P  P11  1  0.821359  0.623866  0.230744  1
  O  O12  1  0.027339  0.465991  0.800943  1
  O  O13  1  0.332202  0.383794  0.099049  1
  O  O14  1  0.669305  0.345711  0.562975  1
  O  O15  1  0.268522  0.690107  0.934330  1
  O  O16  1  0.649556  0.702605  0.096148  1
  O  O17  1  0.000000  0.244855  0.755145  1
  O  O18  1  0.268522  0.934330  0.690107  1
  O  O19  1  0.350444  0.903852  0.297395  1
  O  O20  1  0.649556  0.096148  0.702605  1
  O  O21  1  0.636709  0.864104  0.864104  1
  O  O22  1  0.330695  0.437025  0.654289  1
  O  O23  1  0.363291  0.135896  0.135896  1
  O  O24  1  0.350444  0.297395  0.903852  1
  O  O25  1  0.667798  0.616206  0.900951  1
  O  O26  1  0.731478  0.309893  0.065670  1
  O  O27  1  0.027339  0.800943  0.465991  1
  O  O28  1  1.000000  0.755145  0.244855  1
  O  O29  1  0.332202  0.099049  0.383794  1
  O  O30  1  0.972660  0.534009  0.199057  1
  O  O31  1  0.667798  0.900951  0.616206  1
  O  O32  1  0.972660  0.199057  0.534009  1
  O  O33  1  0.731478  0.065670  0.309893  1
  O  O34  1  0.669305  0.562975  0.345711  1
  O  O35  1  0.330695  0.654289  0.437025  1
