# generated using pymatgen
data_LiBi(PO3)4
_symmetry_space_group_name_H-M   'P 1'
_cell_length_a   9.87101519
_cell_length_b   13.21821958
_cell_length_c   7.24021802
_cell_angle_alpha   90.00000000
_cell_angle_beta   90.90491398
_cell_angle_gamma   90.00000000
_symmetry_Int_Tables_number   1
_chemical_formula_structural   LiBi(PO3)4
_chemical_formula_sum   'Li4 Bi4 P16 O48'
_cell_volume   944.56589088
_cell_formula_units_Z   4
loop_
 _symmetry_equiv_pos_site_id
 _symmetry_equiv_pos_as_xyz
  1  'x, y, z'
loop_
 _atom_site_type_symbol
 _atom_site_label
 _atom_site_symmetry_multiplicity
 _atom_site_fract_x
 _atom_site_fract_y
 _atom_site_fract_z
 _atom_site_occupancy
  Li  Li0  1  0.059385  0.781904  0.491266  1
  Li  Li1  1  0.940615  0.218096  0.508734  1
  Li  Li2  1  0.559385  0.718096  0.991266  1
  Li  Li3  1  0.440615  0.281904  0.008734  1
  Bi  Bi4  1  0.021532  0.218174  0.988219  1
  Bi  Bi5  1  0.521532  0.281826  0.488219  1
  Bi  Bi6  1  0.478468  0.718174  0.511781  1
  Bi  Bi7  1  0.978468  0.781826  0.011781  1
  P  P8  1  0.302500  0.090503  0.225287  1
  P  P9  1  0.767250  0.884928  0.382304  1
  P  P10  1  0.232750  0.115072  0.617696  1
  P  P11  1  0.192520  0.371882  0.356176  1
  P  P12  1  0.692520  0.128118  0.856176  1
  P  P13  1  0.807480  0.628118  0.643824  1
  P  P14  1  0.238748  0.898744  0.745730  1
  P  P15  1  0.738748  0.601256  0.245730  1
  P  P16  1  0.307480  0.871882  0.143824  1
  P  P17  1  0.261252  0.398745  0.754270  1
  P  P18  1  0.197500  0.590503  0.274712  1
  P  P19  1  0.697500  0.909497  0.774712  1
  P  P20  1  0.761252  0.101255  0.254270  1
  P  P21  1  0.802500  0.409496  0.725288  1
  P  P22  1  0.267250  0.615072  0.882304  1
  P  P23  1  0.732750  0.384928  0.117696  1
  O  O24  1  0.369053  0.978392  0.215032  1
  O  O25  1  0.910829  0.107681  0.218608  1
  O  O26  1  0.331231  0.876084  0.924510  1
  O  O27  1  0.288693  0.581015  0.093713  1
  O  O28  1  0.094235  0.146495  0.682303  1
  O  O29  1  0.787206  0.666155  0.087359  1
  O  O30  1  0.168769  0.376084  0.575490  1
  O  O31  1  0.901735  0.711231  0.708073  1
  O  O32  1  0.668769  0.123916  0.075490  1
  O  O33  1  0.713452  0.986564  0.287067  1
  O  O34  1  0.658932  0.633427  0.684398  1
  O  O35  1  0.082011  0.664023  0.251247  1
  O  O36  1  0.788693  0.918985  0.593713  1
  O  O37  1  0.594235  0.353505  0.182303  1
  O  O38  1  0.153857  0.689609  0.862890  1
  O  O39  1  0.712794  0.166155  0.412641  1
  O  O40  1  0.401735  0.788769  0.208073  1
  O  O41  1  0.653857  0.810391  0.362890  1
  O  O42  1  0.630947  0.021608  0.784968  1
  O  O43  1  0.286548  0.013436  0.712933  1
  O  O44  1  0.346143  0.189609  0.637110  1
  O  O45  1  0.410829  0.392319  0.718608  1
  O  O46  1  0.831231  0.623916  0.424510  1
  O  O47  1  0.211307  0.081015  0.406287  1
  O  O48  1  0.786548  0.486564  0.212933  1
  O  O49  1  0.598265  0.211231  0.791927  1
  O  O50  1  0.582011  0.835977  0.751247  1
  O  O51  1  0.212794  0.333845  0.912641  1
  O  O52  1  0.287206  0.833845  0.587359  1
  O  O53  1  0.707767  0.392394  0.563788  1
  O  O54  1  0.792233  0.892394  0.936212  1
  O  O55  1  0.417989  0.164023  0.248753  1
  O  O56  1  0.098265  0.288769  0.291927  1
  O  O57  1  0.841068  0.133427  0.815602  1
  O  O58  1  0.130947  0.478392  0.284968  1
  O  O59  1  0.589171  0.607681  0.281392  1
  O  O60  1  0.869053  0.521608  0.715032  1
  O  O61  1  0.207767  0.107606  0.063788  1
  O  O62  1  0.341068  0.366573  0.315602  1
  O  O63  1  0.158932  0.866573  0.184398  1
  O  O64  1  0.846143  0.310391  0.137110  1
  O  O65  1  0.917989  0.335977  0.748753  1
  O  O66  1  0.405765  0.646495  0.817697  1
  O  O67  1  0.711307  0.418985  0.906287  1
  O  O68  1  0.213452  0.513436  0.787067  1
  O  O69  1  0.089171  0.892319  0.781392  1
  O  O70  1  0.292233  0.607606  0.436212  1
  O  O71  1  0.905765  0.853505  0.317697  1
