# generated using pymatgen
data_LiMn(PO3)4
_symmetry_space_group_name_H-M   'P 1'
_cell_length_a   9.44522574
_cell_length_b   10.21941977
_cell_length_c   9.24566315
_cell_angle_alpha   90.00000000
_cell_angle_beta   90.00000000
_cell_angle_gamma   90.00000000
_symmetry_Int_Tables_number   1
_chemical_formula_structural   LiMn(PO3)4
_chemical_formula_sum   'Li4 Mn4 P16 O48'
_cell_volume   892.43510834
_cell_formula_units_Z   4
loop_
 _symmetry_equiv_pos_site_id
 _symmetry_equiv_pos_as_xyz
  1  'x, y, z'
loop_
 _atom_site_type_symbol
 _atom_site_label
 _atom_site_symmetry_multiplicity
 _atom_site_fract_x
 _atom_site_fract_y
 _atom_site_fract_z
 _atom_site_occupancy
  Li  Li0  1  0.996926  0.172057  0.607465  1
  Li  Li1  1  0.003074  0.827943  0.107465  1
  Li  Li2  1  0.496926  0.327943  0.892535  1
  Li  Li3  1  0.503074  0.672057  0.392535  1
  Mn  Mn4  1  0.510122  0.292954  0.251396  1
  Mn  Mn5  1  0.010122  0.207046  0.248604  1
  Mn  Mn6  1  0.489878  0.707046  0.751396  1
  Mn  Mn7  1  0.989878  0.792954  0.748604  1
  P  P8  1  0.270999  0.979449  0.749628  1
  P  P9  1  0.787466  0.392347  0.043685  1
  P  P10  1  0.195342  0.388102  0.751479  1
  P  P11  1  0.804658  0.611898  0.251479  1
  P  P12  1  0.729001  0.020551  0.249628  1
  P  P13  1  0.695342  0.111898  0.748521  1
  P  P14  1  0.212534  0.607653  0.543685  1
  P  P15  1  0.712534  0.892347  0.956315  1
  P  P16  1  0.287466  0.107653  0.456315  1
  P  P17  1  0.705397  0.891712  0.547417  1
  P  P18  1  0.229001  0.479449  0.250372  1
  P  P19  1  0.770999  0.520551  0.750372  1
  P  P20  1  0.794603  0.391712  0.452583  1
  P  P21  1  0.304658  0.888102  0.248521  1
  P  P22  1  0.205397  0.608288  0.952583  1
  P  P23  1  0.294603  0.108288  0.047417  1
  O  O24  1  0.387591  0.450522  0.254636  1
  O  O25  1  0.897733  0.728305  0.244393  1
  O  O26  1  0.112409  0.950522  0.745364  1
  O  O27  1  0.851423  0.121285  0.735468  1
  O  O28  1  0.397733  0.771695  0.255607  1
  O  O29  1  0.102267  0.271695  0.744393  1
  O  O30  1  0.607247  0.775521  0.570012  1
  O  O31  1  0.652801  0.024599  0.889893  1
  O  O32  1  0.612409  0.549478  0.754636  1
  O  O33  1  0.634180  0.018178  0.617812  1
  O  O34  1  0.811952  0.420785  0.875132  1
  O  O35  1  0.617541  0.780965  0.913691  1
  O  O36  1  0.887591  0.049478  0.245364  1
  O  O37  1  0.188048  0.579215  0.375132  1
  O  O38  1  0.306990  0.075297  0.879082  1
  O  O39  1  0.688048  0.920785  0.124868  1
  O  O40  1  0.857759  0.876128  0.590476  1
  O  O41  1  0.365820  0.981822  0.117812  1
  O  O42  1  0.642241  0.376128  0.409524  1
  O  O43  1  0.629108  0.135121  0.249850  1
  O  O44  1  0.865820  0.518178  0.382188  1
  O  O45  1  0.357759  0.623872  0.909524  1
  O  O46  1  0.870892  0.635121  0.750150  1
  O  O47  1  0.370892  0.864879  0.749850  1
  O  O48  1  0.142241  0.123872  0.090476  1
  O  O49  1  0.648577  0.621285  0.264532  1
  O  O50  1  0.693010  0.924703  0.379082  1
  O  O51  1  0.369926  0.625518  0.568840  1
  O  O52  1  0.382459  0.219035  0.413691  1
  O  O53  1  0.869926  0.874482  0.931160  1
  O  O54  1  0.311952  0.079215  0.624868  1
  O  O55  1  0.347199  0.975401  0.389893  1
  O  O56  1  0.193010  0.575297  0.120918  1
  O  O57  1  0.134180  0.481822  0.882188  1
  O  O58  1  0.602267  0.228305  0.755607  1
  O  O59  1  0.107247  0.724479  0.929988  1
  O  O60  1  0.892753  0.275521  0.429988  1
  O  O61  1  0.130074  0.125518  0.431160  1
  O  O62  1  0.117541  0.719035  0.586309  1
  O  O63  1  0.882459  0.280965  0.086308  1
  O  O64  1  0.847199  0.524599  0.110107  1
  O  O65  1  0.351423  0.378715  0.764532  1
  O  O66  1  0.630074  0.374482  0.068840  1
  O  O67  1  0.152801  0.475401  0.610107  1
  O  O68  1  0.392753  0.224479  0.070012  1
  O  O69  1  0.148577  0.878715  0.235468  1
  O  O70  1  0.806990  0.424703  0.620918  1
  O  O71  1  0.129108  0.364879  0.250150  1
