# generated using pymatgen
data_CuPO4
_symmetry_space_group_name_H-M   'P 1'
_cell_length_a   8.75627172
_cell_length_b   8.75446850
_cell_length_c   8.75306485
_cell_angle_alpha   108.60774441
_cell_angle_beta   108.59616183
_cell_angle_gamma   108.65850056
_symmetry_Int_Tables_number   1
_chemical_formula_structural   CuPO4
_chemical_formula_sum   'Cu6 P6 O24'
_cell_volume   532.16183661
_cell_formula_units_Z   6
loop_
 _symmetry_equiv_pos_site_id
 _symmetry_equiv_pos_as_xyz
  1  'x, y, z'
loop_
 _atom_site_type_symbol
 _atom_site_label
 _atom_site_symmetry_multiplicity
 _atom_site_fract_x
 _atom_site_fract_y
 _atom_site_fract_z
 _atom_site_occupancy
  Cu  Cu0  1  0.527312  0.758027  0.943743  1
  Cu  Cu1  1  0.758009  0.943670  0.527235  1
  Cu  Cu2  1  0.943816  0.527279  0.758103  1
  Cu  Cu3  1  0.232429  0.035972  0.452912  1
  Cu  Cu4  1  0.452890  0.232436  0.035956  1
  Cu  Cu5  1  0.035960  0.452865  0.232385  1
  P  P6  1  0.283601  0.879935  0.093836  1
  P  P7  1  0.791930  0.569936  0.390124  1
  P  P8  1  0.569833  0.390079  0.791881  1
  P  P9  1  0.390085  0.791959  0.569907  1
  P  P10  1  0.879919  0.093720  0.283524  1
  P  P11  1  0.093839  0.283548  0.879937  1
  O  O12  1  0.702708  0.381248  0.713134  1
  O  O13  1  0.299745  0.918754  0.591893  1
  O  O14  1  0.591885  0.299745  0.918763  1
  O  O15  1  0.588842  0.907972  0.617981  1
  O  O16  1  0.340479  0.994720  0.295332  1
  O  O17  1  0.997637  0.081537  0.732272  1
  O  O18  1  0.381238  0.713143  0.702734  1
  O  O19  1  0.633544  0.372982  0.288469  1
  O  O20  1  0.994685  0.295273  0.340486  1
  O  O21  1  0.372946  0.288460  0.633547  1
  O  O22  1  0.784214  0.085640  0.405177  1
  O  O23  1  0.081546  0.732276  0.997661  1
  O  O24  1  0.998731  0.997766  0.307376  1
  O  O25  1  0.085661  0.405189  0.784228  1
  O  O26  1  0.295268  0.340460  0.994674  1
  O  O27  1  0.997750  0.307373  0.998723  1
  O  O28  1  0.907959  0.617992  0.588828  1
  O  O29  1  0.405168  0.784241  0.085633  1
  O  O30  1  0.713155  0.702703  0.381224  1
  O  O31  1  0.918750  0.591925  0.299744  1
  O  O32  1  0.732296  0.997668  0.081553  1
  O  O33  1  0.307396  0.998755  0.997744  1
  O  O34  1  0.617984  0.588866  0.907972  1
  O  O35  1  0.288499  0.633595  0.373019  1
