# generated using pymatgen
data_LiSnP2O7
_symmetry_space_group_name_H-M   'P 1'
_cell_length_a   7.11957929
_cell_length_b   7.37117301
_cell_length_c   12.49447369
_cell_angle_alpha   89.78627378
_cell_angle_beta   90.44256929
_cell_angle_gamma   118.87720278
_symmetry_Int_Tables_number   1
_chemical_formula_structural   LiSnP2O7
_chemical_formula_sum   'Li4 Sn4 P8 O28'
_cell_volume   574.15591846
_cell_formula_units_Z   4
loop_
 _symmetry_equiv_pos_site_id
 _symmetry_equiv_pos_as_xyz
  1  'x, y, z'
loop_
 _atom_site_type_symbol
 _atom_site_label
 _atom_site_symmetry_multiplicity
 _atom_site_fract_x
 _atom_site_fract_y
 _atom_site_fract_z
 _atom_site_occupancy
  Li  Li0  1  0.741680  0.458890  0.010528  1
  Li  Li1  1  0.707987  0.428046  0.746290  1
  Li  Li2  1  0.279941  0.571954  0.246290  1
  Li  Li3  1  0.282789  0.541110  0.510528  1
  Sn  Sn4  1  0.656508  0.998642  0.621685  1
  Sn  Sn5  1  0.657866  0.001358  0.121685  1
  Sn  Sn6  1  0.354512  0.980561  0.876803  1
  Sn  Sn7  1  0.373950  0.019439  0.376803  1
  P  P8  1  0.899511  0.241595  0.353722  1
  P  P9  1  0.078050  0.810729  0.112333  1
  P  P10  1  0.096705  0.756587  0.647025  1
  P  P11  1  0.340119  0.243413  0.147025  1
  P  P12  1  0.731750  0.802466  0.387918  1
  P  P13  1  0.929283  0.197534  0.887918  1
  P  P14  1  0.267321  0.189271  0.612333  1
  P  P15  1  0.657916  0.758405  0.853722  1
  O  O16  1  0.753798  0.197513  0.808829  1
  O  O17  1  0.892682  0.563910  0.624466  1
  O  O18  1  0.493069  0.200438  0.073937  1
  O  O19  1  0.159512  0.764603  0.767219  1
  O  O20  1  0.889839  0.958042  0.879905  1
  O  O21  1  0.436661  0.192917  0.693189  1
  O  O22  1  0.631520  0.773093  0.501186  1
  O  O23  1  0.845547  0.658085  0.125660  1
  O  O24  1  0.243743  0.807083  0.193189  1
  O  O25  1  0.931797  0.041958  0.379905  1
  O  O26  1  0.608174  0.762875  0.733762  1
  O  O27  1  0.328772  0.436090  0.124466  1
  O  O28  1  0.292631  0.799562  0.573937  1
  O  O29  1  0.394909  0.235397  0.267219  1
  O  O30  1  0.143542  0.797382  0.995292  1
  O  O31  1  0.858427  0.226907  0.001186  1
  O  O32  1  0.160043  0.331405  0.863600  1
  O  O33  1  0.845300  0.237125  0.233762  1
  O  O34  1  0.187463  0.341915  0.625660  1
  O  O35  1  0.502287  0.801250  0.924116  1
  O  O36  1  0.674736  0.567989  0.881323  1
  O  O37  1  0.346160  0.202618  0.495292  1
  O  O38  1  0.701035  0.198750  0.424116  1
  O  O39  1  0.061354  0.957519  0.626441  1
  O  O40  1  0.103835  0.042481  0.126441  1
  O  O41  1  0.106748  0.432011  0.381323  1
  O  O42  1  0.828638  0.668595  0.363600  1
  O  O43  1  0.556284  0.802487  0.308829  1
