# generated using pymatgen
data_SnPO4
_symmetry_space_group_name_H-M   'P 1'
_cell_length_a   8.13162796
_cell_length_b   8.42778427
_cell_length_c   9.70867073
_cell_angle_alpha   90.50282238
_cell_angle_beta   89.73943129
_cell_angle_gamma   121.21226582
_symmetry_Int_Tables_number   1
_chemical_formula_structural   SnPO4
_chemical_formula_sum   'Sn6 P6 O24'
_cell_volume   569.02158191
_cell_formula_units_Z   6
loop_
 _symmetry_equiv_pos_site_id
 _symmetry_equiv_pos_as_xyz
  1  'x, y, z'
loop_
 _atom_site_type_symbol
 _atom_site_label
 _atom_site_symmetry_multiplicity
 _atom_site_fract_x
 _atom_site_fract_y
 _atom_site_fract_z
 _atom_site_occupancy
  Sn  Sn0  1  0.614563  0.993358  0.452176  1
  Sn  Sn1  1  0.406231  0.416558  0.459509  1
  Sn  Sn2  1  0.075359  0.655806  0.463389  1
  Sn  Sn3  1  0.385437  0.378796  0.952176  1
  Sn  Sn4  1  0.593769  0.010327  0.959509  1
  Sn  Sn5  1  0.924641  0.580447  0.963389  1
  P  P6  1  0.704581  0.351891  0.668777  1
  P  P7  1  0.985057  0.985840  0.033235  1
  P  P8  1  0.712962  0.358809  0.260383  1
  P  P9  1  0.287038  0.645847  0.760383  1
  P  P10  1  0.295419  0.647310  0.168777  1
  P  P11  1  0.014943  0.000783  0.533235  1
  O  O12  1  0.008127  0.985626  0.686777  1
  O  O13  1  0.506441  0.323582  0.633573  1
  O  O14  1  0.120569  0.202801  0.474596  1
  O  O15  1  0.239113  0.449460  0.800250  1
  O  O16  1  0.494836  0.793748  0.801613  1
  O  O17  1  0.857862  0.550347  0.325444  1
  O  O18  1  0.718772  0.182441  0.628078  1
  O  O19  1  0.879431  0.082230  0.974596  1
  O  O20  1  0.729247  0.382943  0.098786  1
  O  O21  1  0.493559  0.817140  0.133573  1
  O  O22  1  0.268505  0.645047  0.330897  1
  O  O23  1  0.760887  0.210347  0.300250  1
  O  O24  1  0.867969  0.534359  0.606780  1
  O  O25  1  0.130329  0.912520  0.465057  1
  O  O26  1  0.193886  0.092069  0.969875  1
  O  O27  1  0.806114  0.898183  0.469875  1
  O  O28  1  0.731495  0.376542  0.830897  1
  O  O29  1  0.132031  0.666390  0.106780  1
  O  O30  1  0.505164  0.298912  0.301613  1
  O  O31  1  0.281228  0.463669  0.128078  1
  O  O32  1  0.991873  0.977498  0.186777  1
  O  O33  1  0.270753  0.653696  0.598786  1
  O  O34  1  0.142138  0.692485  0.825444  1
  O  O35  1  0.869671  0.782190  0.965057  1
