# generated using pymatgen
data_LiFe4P7O24
_symmetry_space_group_name_H-M   'P 1'
_cell_length_a   10.24311864
_cell_length_b   10.31467681
_cell_length_c   10.96477360
_cell_angle_alpha   112.32523428
_cell_angle_beta   109.43929346
_cell_angle_gamma   105.20850092
_symmetry_Int_Tables_number   1
_chemical_formula_structural   LiFe4P7O24
_chemical_formula_sum   'Li2 Fe8 P14 O48'
_cell_volume   904.64780978
_cell_formula_units_Z   2
loop_
 _symmetry_equiv_pos_site_id
 _symmetry_equiv_pos_as_xyz
  1  'x, y, z'
loop_
 _atom_site_type_symbol
 _atom_site_label
 _atom_site_symmetry_multiplicity
 _atom_site_fract_x
 _atom_site_fract_y
 _atom_site_fract_z
 _atom_site_occupancy
  Li  Li0  1  0.881178  0.576467  0.329919  1
  Li  Li1  1  0.118822  0.423533  0.670081  1
  Fe  Fe2  1  0.577402  0.415625  0.592199  1
  Fe  Fe3  1  0.422598  0.584375  0.407801  1
  Fe  Fe4  1  0.376505  0.228467  0.888868  1
  Fe  Fe5  1  0.623495  0.771533  0.111132  1
  Fe  Fe6  1  0.075961  0.693206  0.075859  1
  Fe  Fe7  1  0.756564  0.156374  0.256762  1
  Fe  Fe8  1  0.243436  0.843626  0.743238  1
  Fe  Fe9  1  0.924039  0.306794  0.924141  1
  P  P10  1  0.762122  0.190487  0.567409  1
  P  P11  1  0.934553  0.679162  0.738230  1
  P  P12  1  0.065447  0.320838  0.261770  1
  P  P13  1  0.502233  0.277885  0.242721  1
  P  P14  1  0.299550  0.509562  0.048680  1
  P  P15  1  0.613673  0.061005  0.882124  1
  P  P16  1  0.497767  0.722115  0.757279  1
  P  P17  1  0.386327  0.938995  0.117876  1
  P  P18  1  0.997265  0.006571  0.225224  1
  P  P19  1  0.002735  0.993429  0.774776  1
  P  P20  1  0.700450  0.490438  0.951320  1
  P  P21  1  0.727730  0.868862  0.478175  1
  P  P22  1  0.237878  0.809513  0.432591  1
  P  P23  1  0.272270  0.131138  0.521825  1
  O  O24  1  0.588013  0.358962  0.952688  1
  O  O25  1  0.034304  0.676349  0.659345  1
  O  O26  1  0.326880  0.690228  0.703435  1
  O  O27  1  0.002926  0.665817  0.875342  1
  O  O28  1  0.734528  0.645123  0.083857  1
  O  O29  1  0.931985  0.850490  0.794638  1
  O  O30  1  0.689680  0.109938  0.047007  1
  O  O31  1  0.137468  0.511732  0.009678  1
  O  O32  1  0.489423  0.395738  0.370758  1
  O  O33  1  0.673120  0.309772  0.296565  1
  O  O34  1  0.443199  0.041055  0.823170  1
  O  O35  1  0.770114  0.557591  0.624395  1
  O  O36  1  0.014363  0.872713  0.127671  1
  O  O37  1  0.277317  0.178972  0.671490  1
  O  O38  1  0.629337  0.234137  0.539298  1
  O  O39  1  0.684150  0.010015  0.530883  1
  O  O40  1  0.595059  0.888900  0.781609  1
  O  O41  1  0.556801  0.958945  0.176830  1
  O  O42  1  0.570325  0.732781  0.907393  1
  O  O43  1  0.315850  0.989985  0.469117  1
  O  O44  1  0.722683  0.821028  0.328510  1
  O  O45  1  0.510577  0.604262  0.629242  1
  O  O46  1  0.707668  0.160594  0.841231  1
  O  O47  1  0.367348  0.523833  0.202828  1
  O  O48  1  0.997074  0.334183  0.124658  1
  O  O49  1  0.362023  0.259271  0.506185  1
  O  O50  1  0.370663  0.765863  0.460702  1
  O  O51  1  0.833142  0.980039  0.198224  1
  O  O52  1  0.965696  0.323651  0.340655  1
  O  O53  1  0.895483  0.289872  0.729712  1
  O  O54  1  0.632652  0.476167  0.797172  1
  O  O55  1  0.164619  0.809462  0.534234  1
  O  O56  1  0.104517  0.710128  0.270288  1
  O  O57  1  0.068015  0.149510  0.205362  1
  O  O58  1  0.835381  0.190537  0.465766  1
  O  O59  1  0.907921  0.936726  0.598798  1
  O  O60  1  0.229886  0.442409  0.375605  1
  O  O61  1  0.166858  0.019961  0.801776  1
  O  O62  1  0.310320  0.890062  0.952993  1
  O  O63  1  0.411987  0.641038  0.047312  1
  O  O64  1  0.404941  0.111100  0.218391  1
  O  O65  1  0.429675  0.267219  0.092607  1
  O  O66  1  0.985637  0.127287  0.872329  1
  O  O67  1  0.292332  0.839406  0.158769  1
  O  O68  1  0.092079  0.063274  0.401202  1
  O  O69  1  0.637977  0.740729  0.493815  1
  O  O70  1  0.862532  0.488268  0.990322  1
  O  O71  1  0.265472  0.354877  0.916143  1
