# generated using pymatgen
data_Li2Cu(PO3)4
_symmetry_space_group_name_H-M   'P 1'
_cell_length_a   7.12714553
_cell_length_b   7.58517646
_cell_length_c   4.92512804
_cell_angle_alpha   81.92011097
_cell_angle_beta   110.28003384
_cell_angle_gamma   115.70011639
_symmetry_Int_Tables_number   1
_chemical_formula_structural   Li2Cu(PO3)4
_chemical_formula_sum   'Li2 Cu1 P4 O12'
_cell_volume   225.02913839
_cell_formula_units_Z   1
loop_
 _symmetry_equiv_pos_site_id
 _symmetry_equiv_pos_as_xyz
  1  'x, y, z'
loop_
 _atom_site_type_symbol
 _atom_site_label
 _atom_site_symmetry_multiplicity
 _atom_site_fract_x
 _atom_site_fract_y
 _atom_site_fract_z
 _atom_site_occupancy
  Li  Li0  1  0.762398  0.554366  0.009759  1
  Li  Li1  1  0.237602  0.445634  0.990241  1
  Cu  Cu2  1  0.000000  0.000000  0.000000  1
  P  P3  1  0.189506  0.785900  0.556799  1
  P  P4  1  0.403621  0.216513  0.562630  1
  P  P5  1  0.596379  0.783487  0.437370  1
  P  P6  1  0.810494  0.214100  0.443201  1
  O  O7  1  0.759463  0.791113  0.737399  1
  O  O8  1  0.456434  0.367313  0.772456  1
  O  O9  1  0.240537  0.208887  0.262601  1
  O  O10  1  0.684128  0.997860  0.293574  1
  O  O11  1  0.315872  0.002140  0.706426  1
  O  O12  1  0.014795  0.792898  0.275096  1
  O  O13  1  0.543566  0.632687  0.227544  1
  O  O14  1  0.881881  0.360151  0.224932  1
  O  O15  1  0.985205  0.207102  0.724904  1
  O  O16  1  0.372295  0.761701  0.469082  1
  O  O17  1  0.627705  0.238299  0.530918  1
  O  O18  1  0.118119  0.639849  0.775067  1
