# generated using pymatgen
data_LiNb(PO4)2
_symmetry_space_group_name_H-M   'P 1'
_cell_length_a   7.84919828
_cell_length_b   7.78605838
_cell_length_c   5.20257343
_cell_angle_alpha   90.00000000
_cell_angle_beta   93.89745390
_cell_angle_gamma   90.00000000
_symmetry_Int_Tables_number   1
_chemical_formula_structural   LiNb(PO4)2
_chemical_formula_sum   'Li2 Nb2 P4 O16'
_cell_volume   317.21638998
_cell_formula_units_Z   2
loop_
 _symmetry_equiv_pos_site_id
 _symmetry_equiv_pos_as_xyz
  1  'x, y, z'
loop_
 _atom_site_type_symbol
 _atom_site_label
 _atom_site_symmetry_multiplicity
 _atom_site_fract_x
 _atom_site_fract_y
 _atom_site_fract_z
 _atom_site_occupancy
  Li  Li0  1  0.579086  0.119882  0.089279  1
  Li  Li1  1  0.920914  0.619882  0.410721  1
  Nb  Nb2  1  0.004267  0.008833  0.499706  1
  Nb  Nb3  1  0.495733  0.508833  0.000294  1
  P  P4  1  0.702297  0.311607  0.540412  1
  P  P5  1  0.797703  0.811607  0.959588  1
  P  P6  1  0.291122  0.689967  0.466080  1
  P  P7  1  0.208878  0.189967  0.033920  1
  O  O8  1  0.402754  0.685017  0.224960  1
  O  O9  1  0.655025  0.935725  0.930841  1
  O  O10  1  0.271653  0.377972  0.986341  1
  O  O11  1  0.732795  0.624889  0.023755  1
  O  O12  1  0.928428  0.855289  0.197110  1
  O  O13  1  0.350683  0.065252  0.058692  1
  O  O14  1  0.149317  0.565252  0.441308  1
  O  O15  1  0.097246  0.185017  0.275040  1
  O  O16  1  0.571572  0.355289  0.302890  1
  O  O17  1  0.228347  0.877972  0.513659  1
  O  O18  1  0.767205  0.124890  0.476245  1
  O  O19  1  0.596317  0.310028  0.786291  1
  O  O20  1  0.903683  0.810028  0.713709  1
  O  O21  1  0.073614  0.141334  0.804814  1
  O  O22  1  0.844975  0.435725  0.569159  1
  O  O23  1  0.426386  0.641334  0.695186  1
