# generated using pymatgen
data_Ni(PO3)4
_symmetry_space_group_name_H-M   'P 1'
_cell_length_a   7.26525199
_cell_length_b   7.26749820
_cell_length_c   9.91232815
_cell_angle_alpha   96.42883695
_cell_angle_beta   112.13534556
_cell_angle_gamma   109.50631347
_symmetry_Int_Tables_number   1
_chemical_formula_structural   Ni(PO3)4
_chemical_formula_sum   'Ni2 P8 O24'
_cell_volume   439.70072238
_cell_formula_units_Z   2
loop_
 _symmetry_equiv_pos_site_id
 _symmetry_equiv_pos_as_xyz
  1  'x, y, z'
loop_
 _atom_site_type_symbol
 _atom_site_label
 _atom_site_symmetry_multiplicity
 _atom_site_fract_x
 _atom_site_fract_y
 _atom_site_fract_z
 _atom_site_occupancy
  Ni  Ni0  1  0.500000  0.500000  0.500000  1
  Ni  Ni1  1  0.500000  0.000000  0.000000  1
  P  P2  1  0.500858  0.316673  0.807187  1
  P  P3  1  0.009660  0.693659  0.692894  1
  P  P4  1  0.499142  0.683327  0.192813  1
  P  P5  1  0.990340  0.306341  0.307106  1
  P  P6  1  0.760850  0.725589  0.027713  1
  P  P7  1  0.197771  0.732898  0.472390  1
  P  P8  1  0.239150  0.274411  0.972287  1
  P  P9  1  0.802229  0.267102  0.527610  1
  O  O10  1  0.308013  0.338989  0.841600  1
  O  O11  1  0.997667  0.466522  0.658364  1
  O  O12  1  0.691987  0.661011  0.158400  1
  O  O13  1  0.002333  0.533478  0.341636  1
  O  O14  1  0.716448  0.510730  0.928663  1
  O  O15  1  0.082091  0.787815  0.571424  1
  O  O16  1  0.283552  0.489270  0.071337  1
  O  O17  1  0.917909  0.212185  0.428576  1
  O  O18  1  0.457435  0.327259  0.650101  1
  O  O19  1  0.177213  0.807433  0.849885  1
  O  O20  1  0.542565  0.672741  0.349899  1
  O  O21  1  0.822787  0.192567  0.150115  1
  O  O22  1  0.527586  0.126259  0.841057  1
  O  O23  1  0.785138  0.686273  0.659084  1
  O  O24  1  0.472414  0.873741  0.158943  1
  O  O25  1  0.214862  0.313727  0.340916  1
  O  O26  1  0.601580  0.803053  0.929568  1
  O  O27  1  0.373424  0.671924  0.570348  1
  O  O28  1  0.398420  0.196947  0.070432  1
  O  O29  1  0.626576  0.328076  0.429652  1
  O  O30  1  0.000631  0.857384  0.099905  1
  O  O31  1  0.257426  0.900648  0.400138  1
  O  O32  1  0.999369  0.142616  0.900095  1
  O  O33  1  0.742574  0.099352  0.599862  1
