# generated using pymatgen
data_LiBi(PO3)4
_symmetry_space_group_name_H-M   'P 1'
_cell_length_a   13.57018205
_cell_length_b   8.29249119
_cell_length_c   9.99245393
_cell_angle_alpha   90.00000000
_cell_angle_beta   90.00000000
_cell_angle_gamma   90.00000000
_symmetry_Int_Tables_number   1
_chemical_formula_structural   LiBi(PO3)4
_chemical_formula_sum   'Li4 Bi4 P16 O48'
_cell_volume   1124.45698706
_cell_formula_units_Z   4
loop_
 _symmetry_equiv_pos_site_id
 _symmetry_equiv_pos_as_xyz
  1  'x, y, z'
loop_
 _atom_site_type_symbol
 _atom_site_label
 _atom_site_symmetry_multiplicity
 _atom_site_fract_x
 _atom_site_fract_y
 _atom_site_fract_z
 _atom_site_occupancy
  Li  Li0  1  0.000000  0.026791  0.250000  1
  Li  Li1  1  0.000000  0.973209  0.750000  1
  Li  Li2  1  0.500000  0.473209  0.750000  1
  Li  Li3  1  0.500000  0.526791  0.250000  1
  Bi  Bi4  1  0.500000  0.877343  0.750000  1
  Bi  Bi5  1  0.000000  0.622657  0.250000  1
  Bi  Bi6  1  0.000000  0.377343  0.750000  1
  Bi  Bi7  1  0.500000  0.122657  0.250000  1
  P  P8  1  0.364350  0.332246  0.002494  1
  P  P9  1  0.635650  0.332246  0.497506  1
  P  P10  1  0.135650  0.832246  0.002494  1
  P  P11  1  0.838911  0.536660  0.992980  1
  P  P12  1  0.364350  0.667754  0.502494  1
  P  P13  1  0.661089  0.036660  0.992980  1
  P  P14  1  0.635650  0.667754  0.997506  1
  P  P15  1  0.135650  0.167754  0.502494  1
  P  P16  1  0.338911  0.036660  0.507020  1
  P  P17  1  0.661089  0.963340  0.492980  1
  P  P18  1  0.161089  0.463340  0.007020  1
  P  P19  1  0.161089  0.536660  0.507020  1
  P  P20  1  0.838911  0.463340  0.492980  1
  P  P21  1  0.864350  0.167754  0.997506  1
  P  P22  1  0.338911  0.963340  0.007020  1
  P  P23  1  0.864350  0.832246  0.497506  1
  O  O24  1  0.644991  0.124158  0.123308  1
  O  O25  1  0.935263  0.833921  0.379167  1
  O  O26  1  0.766445  0.085347  0.934119  1
  O  O27  1  0.233555  0.085347  0.565881  1
  O  O28  1  0.064737  0.833921  0.120833  1
  O  O29  1  0.824699  0.348610  0.023639  1
  O  O30  1  0.266445  0.414653  0.065881  1
  O  O31  1  0.435263  0.333921  0.120833  1
  O  O32  1  0.435263  0.666079  0.620833  1
  O  O33  1  0.915602  0.562529  0.885486  1
  O  O34  1  0.324699  0.848610  0.476361  1
  O  O35  1  0.603882  0.595708  0.126425  1
  O  O36  1  0.396118  0.595708  0.373575  1
  O  O37  1  0.084398  0.562529  0.614514  1
  O  O38  1  0.266445  0.585347  0.565881  1
  O  O39  1  0.144991  0.624158  0.376692  1
  O  O40  1  0.355009  0.875842  0.876692  1
  O  O41  1  0.064737  0.166079  0.620833  1
  O  O42  1  0.324699  0.151390  0.976361  1
  O  O43  1  0.733555  0.585347  0.934119  1
  O  O44  1  0.915602  0.437471  0.385486  1
  O  O45  1  0.855009  0.375842  0.623308  1
  O  O46  1  0.175301  0.348610  0.476361  1
  O  O47  1  0.935263  0.166079  0.879167  1
  O  O48  1  0.855009  0.624158  0.123308  1
  O  O49  1  0.415602  0.062529  0.614514  1
  O  O50  1  0.144991  0.375842  0.876692  1
  O  O51  1  0.355009  0.124158  0.376692  1
  O  O52  1  0.175301  0.651390  0.976361  1
  O  O53  1  0.896118  0.095708  0.126425  1
  O  O54  1  0.584398  0.062529  0.885486  1
  O  O55  1  0.603882  0.404292  0.626425  1
  O  O56  1  0.584398  0.937471  0.385486  1
  O  O57  1  0.644991  0.875842  0.623308  1
  O  O58  1  0.103883  0.095708  0.373575  1
  O  O59  1  0.233555  0.914653  0.065881  1
  O  O60  1  0.675301  0.151390  0.523639  1
  O  O61  1  0.766445  0.914653  0.434119  1
  O  O62  1  0.896118  0.904292  0.626425  1
  O  O63  1  0.564737  0.333921  0.379167  1
  O  O64  1  0.103883  0.904292  0.873575  1
  O  O65  1  0.675301  0.848610  0.023639  1
  O  O66  1  0.396118  0.404292  0.873575  1
  O  O67  1  0.733555  0.414653  0.434119  1
  O  O68  1  0.415602  0.937471  0.114514  1
  O  O69  1  0.564737  0.666079  0.879167  1
  O  O70  1  0.824699  0.651390  0.523639  1
  O  O71  1  0.084398  0.437471  0.114514  1
