# generated using pymatgen
data_Sn2P3O10
_symmetry_space_group_name_H-M   'P 1'
_cell_length_a   12.62585013
_cell_length_b   8.03846240
_cell_length_c   9.77470479
_cell_angle_alpha   90.00000000
_cell_angle_beta   103.42518106
_cell_angle_gamma   90.00000000
_symmetry_Int_Tables_number   1
_chemical_formula_structural   Sn2P3O10
_chemical_formula_sum   'Sn8 P12 O40'
_cell_volume   964.94940286
_cell_formula_units_Z   4
loop_
 _symmetry_equiv_pos_site_id
 _symmetry_equiv_pos_as_xyz
  1  'x, y, z'
loop_
 _atom_site_type_symbol
 _atom_site_label
 _atom_site_symmetry_multiplicity
 _atom_site_fract_x
 _atom_site_fract_y
 _atom_site_fract_z
 _atom_site_occupancy
  Sn  Sn0  1  0.147224  0.552284  0.452042  1
  Sn  Sn1  1  0.852776  0.447716  0.547958  1
  Sn  Sn2  1  0.408972  0.107831  0.766439  1
  Sn  Sn3  1  0.852776  0.052284  0.047958  1
  Sn  Sn4  1  0.147224  0.947716  0.952042  1
  Sn  Sn5  1  0.591028  0.607831  0.733561  1
  Sn  Sn6  1  0.408972  0.392169  0.266439  1
  Sn  Sn7  1  0.591028  0.892169  0.233561  1
  P  P8  1  0.052921  0.580893  0.772350  1
  P  P9  1  0.052921  0.919107  0.272350  1
  P  P10  1  0.350988  0.782052  0.955005  1
  P  P11  1  0.264627  0.074586  0.408017  1
  P  P12  1  0.649012  0.217948  0.044995  1
  P  P13  1  0.264627  0.425414  0.908017  1
  P  P14  1  0.350988  0.717948  0.455005  1
  P  P15  1  0.947079  0.080893  0.727650  1
  P  P16  1  0.947079  0.419107  0.227650  1
  P  P17  1  0.649012  0.282052  0.544995  1
  P  P18  1  0.735373  0.574586  0.091983  1
  P  P19  1  0.735373  0.925414  0.591983  1
  O  O20  1  0.311750  0.603153  0.878568  1
  O  O21  1  0.287339  0.691847  0.570754  1
  O  O22  1  0.526545  0.219864  0.002117  1
  O  O23  1  0.307007  0.301993  0.816846  1
  O  O24  1  0.287339  0.808153  0.070754  1
  O  O25  1  0.718412  0.613544  0.938009  1
  O  O26  1  0.301450  0.917300  0.841792  1
  O  O27  1  0.526545  0.280136  0.502117  1
  O  O28  1  0.301450  0.582700  0.341792  1
  O  O29  1  0.064246  0.021811  0.736800  1
  O  O30  1  0.698550  0.417300  0.658208  1
  O  O31  1  0.281588  0.113544  0.561991  1
  O  O32  1  0.067344  0.891131  0.121875  1
  O  O33  1  0.698550  0.082700  0.158208  1
  O  O34  1  0.688250  0.396847  0.121432  1
  O  O35  1  0.935754  0.978189  0.263200  1
  O  O36  1  0.712661  0.191847  0.929246  1
  O  O37  1  0.692993  0.698007  0.183154  1
  O  O38  1  0.311750  0.896847  0.378568  1
  O  O39  1  0.932656  0.108869  0.878125  1
  O  O40  1  0.473455  0.719864  0.497883  1
  O  O41  1  0.919232  0.224126  0.624819  1
  O  O42  1  0.080768  0.775874  0.375181  1
  O  O43  1  0.864778  0.932870  0.657225  1
  O  O44  1  0.067344  0.608869  0.621875  1
  O  O45  1  0.712661  0.308153  0.429246  1
  O  O46  1  0.473455  0.780136  0.997883  1
  O  O47  1  0.919232  0.275874  0.124819  1
  O  O48  1  0.281588  0.386456  0.061991  1
  O  O49  1  0.064246  0.478189  0.236800  1
  O  O50  1  0.718412  0.886456  0.438009  1
  O  O51  1  0.135222  0.067130  0.342775  1
  O  O52  1  0.864778  0.567130  0.157225  1
  O  O53  1  0.935754  0.521811  0.763200  1
  O  O54  1  0.080768  0.724126  0.875181  1
  O  O55  1  0.135222  0.432870  0.842775  1
  O  O56  1  0.692993  0.801993  0.683154  1
  O  O57  1  0.307007  0.198007  0.316846  1
  O  O58  1  0.688250  0.103153  0.621432  1
  O  O59  1  0.932656  0.391131  0.378125  1
