# generated using pymatgen
data_LiFePO4
_symmetry_space_group_name_H-M   'P 1'
_cell_length_a   9.95300140
_cell_length_b   10.15055255
_cell_length_c   17.35436972
_cell_angle_alpha   105.25498216
_cell_angle_beta   106.66394714
_cell_angle_gamma   60.64173922
_symmetry_Int_Tables_number   1
_chemical_formula_structural   LiFePO4
_chemical_formula_sum   'Li16 Fe16 P16 O64'
_cell_volume   1448.08912413
_cell_formula_units_Z   16
loop_
 _symmetry_equiv_pos_site_id
 _symmetry_equiv_pos_as_xyz
  1  'x, y, z'
loop_
 _atom_site_type_symbol
 _atom_site_label
 _atom_site_symmetry_multiplicity
 _atom_site_fract_x
 _atom_site_fract_y
 _atom_site_fract_z
 _atom_site_occupancy
  Li  Li0  1  0.504391  0.061317  0.687044  1
  Li  Li1  1  0.061186  0.995186  0.687027  1
  Li  Li2  1  0.627077  0.999461  0.184806  1
  Li  Li3  1  0.630656  0.495186  0.187027  1
  Li  Li4  1  0.121336  0.561317  0.187044  1
  Li  Li5  1  0.558269  0.499461  0.684806  1
  Li  Li6  1  0.240303  0.318381  0.937168  1
  Li  Li7  1  0.005320  0.555514  0.687050  1
  Li  Li8  1  0.378484  0.818381  0.437168  1
  Li  Li9  1  0.741009  0.878239  0.936785  1
  Li  Li10  1  0.240695  0.818550  0.937205  1
  Li  Li11  1  0.317536  0.378239  0.436785  1
  Li  Li12  1  0.126216  0.055514  0.187050  1
  Li  Li13  1  0.818718  0.877404  0.436665  1
  Li  Li14  1  0.740543  0.377404  0.936665  1
  Li  Li15  1  0.877959  0.318550  0.437205  1
  Fe  Fe16  1  0.186616  0.120690  0.563137  1
  Fe  Fe17  1  0.869199  0.945246  0.812078  1
  Fe  Fe18  1  0.255865  0.119677  0.062955  1
  Fe  Fe19  1  0.368621  0.502718  0.812656  1
  Fe  Fe20  1  0.373673  0.997119  0.813444  1
  Fe  Fe21  1  0.757362  0.678839  0.061867  1
  Fe  Fe22  1  0.941318  0.002718  0.312656  1
  Fe  Fe23  1  0.496064  0.941432  0.311324  1
  Fe  Fe24  1  0.873829  0.441432  0.811324  1
  Fe  Fe25  1  0.442653  0.497119  0.313444  1
  Fe  Fe26  1  0.753936  0.180874  0.062185  1
  Fe  Fe27  1  0.127375  0.680874  0.562185  1
  Fe  Fe28  1  0.625666  0.178839  0.561867  1
  Fe  Fe29  1  0.997633  0.445246  0.312078  1
  Fe  Fe30  1  0.687413  0.619677  0.562955  1
  Fe  Fe31  1  0.255831  0.620690  0.063137  1
  P  P32  1  0.564985  0.679757  0.872974  1
  P  P33  1  0.437865  0.814281  0.124439  1
  P  P34  1  0.061558  0.629196  0.875240  1
  P  P35  1  0.815016  0.870193  0.623455  1
  P  P36  1  0.127663  0.683949  0.373163  1
  P  P37  1  0.435075  0.316632  0.124558  1
  P  P38  1  0.937739  0.871489  0.122776  1
  P  P39  1  0.064360  0.125875  0.874710  1
  P  P40  1  0.184486  0.129196  0.375240  1
  P  P41  1  0.684474  0.625875  0.374709  1
  P  P42  1  0.872293  0.314281  0.624439  1
  P  P43  1  0.938246  0.370193  0.123455  1
  P  P44  1  0.561551  0.183949  0.873163  1
  P  P45  1  0.313547  0.371489  0.622776  1
  P  P46  1  0.372852  0.816632  0.624558  1
  P  P47  1  0.628232  0.179757  0.372974  1
  O  O48  1  0.553563  0.841477  0.882770  1
  O  O49  1  0.636459  0.573135  0.797200  1
  O  O50  1  0.676138  0.601088  0.948082  1
  O  O51  1  0.329660  0.887290  0.047300  1
  O  O52  1  0.604269  0.804701  0.137892  1
  O  O53  1  0.917533  0.919179  0.700599  1
  O  O54  1  0.178549  0.666410  0.947463  1
  O  O55  1  0.043865  0.992711  0.889359  1
  O  O56  1  0.898249  0.770663  0.863469  1
  O  O57  1  0.362269  0.922334  0.199064  1
  O  O58  1  0.830350  0.387290  0.547300  1
  O  O59  1  0.990245  0.847426  0.384078  1
  O  O60  1  0.546406  0.347426  0.884078  1
  O  O61  1  0.892797  0.832138  0.549368  1
  O  O62  1  0.809125  0.728448  0.638334  1
  O  O63  1  0.043431  0.494731  0.890122  1
  O  O64  1  0.271530  0.695225  0.362740  1
  O  O65  1  0.728922  0.304701  0.637892  1
  O  O66  1  0.131726  0.583453  0.796858  1
  O  O67  1  0.858936  0.921810  0.198190  1
  O  O68  1  0.180203  0.163773  0.947293  1
  O  O69  1  0.306435  0.231487  0.639013  1
  O  O70  1  0.144946  0.504363  0.607763  1
  O  O71  1  0.396748  0.696859  0.862620  1
  O  O72  1  0.328164  0.888346  0.546407  1
  O  O73  1  0.582092  0.577592  0.297339  1
  O  O74  1  0.450629  0.153894  0.115579  1
  O  O75  1  0.355849  0.425125  0.197592  1
  O  O76  1  0.603316  0.663773  0.447293  1
  O  O77  1  0.329897  0.388346  0.046407  1
  O  O78  1  0.010697  0.151636  0.615837  1
  O  O79  1  0.137655  0.077592  0.797339  1
  O  O80  1  0.852784  0.492711  0.389359  1
  O  O81  1  0.417444  0.421810  0.698190  1
  O  O82  1  0.487729  0.341477  0.382770  1
  O  O83  1  0.827502  0.829840  0.048019  1
  O  O84  1  0.511056  0.653894  0.615579  1
  O  O85  1  0.646565  0.002162  0.608627  1
  O  O86  1  0.675516  0.103473  0.947466  1
  O  O87  1  0.587606  0.073135  0.297200  1
  O  O88  1  0.102506  0.166410  0.447463  1
  O  O89  1  0.824432  0.332138  0.049368  1
  O  O90  1  0.390678  0.329840  0.548019  1
  O  O91  1  0.453504  0.651636  0.115837  1
  O  O92  1  0.168477  0.603473  0.447466  1
  O  O93  1  0.231000  0.805353  0.638899  1
  O  O94  1  0.769014  0.196859  0.362620  1
  O  O95  1  0.081680  0.083453  0.296858  1
  O  O96  1  0.914460  0.422334  0.699064  1
  O  O97  1  0.395984  0.195225  0.862740  1
  O  O98  1  0.863887  0.419179  0.200599  1
  O  O99  1  0.901445  0.268239  0.862799  1
  O  O100  1  0.082227  0.581851  0.296460  1
  O  O101  1  0.958455  0.004363  0.107763  1
  O  O102  1  0.101090  0.731487  0.139013  1
  O  O103  1  0.602546  0.305353  0.138899  1
  O  O104  1  0.416618  0.925125  0.697592  1
  O  O105  1  0.100761  0.228448  0.138334  1
  O  O106  1  0.959900  0.502162  0.108627  1
  O  O107  1  0.693114  0.768239  0.362799  1
  O  O108  1  0.351960  0.994731  0.390122  1
  O  O109  1  0.670856  0.101088  0.448082  1
  O  O110  1  0.194557  0.270663  0.363469  1
  O  O111  1  0.632382  0.081851  0.796460  1
