# generated using pymatgen
data_LiSn4(PO4)3
_symmetry_space_group_name_H-M   'P 1'
_cell_length_a   9.69479843
_cell_length_b   9.69492776
_cell_length_c   7.10562694
_cell_angle_alpha   90.00099491
_cell_angle_beta   89.99876550
_cell_angle_gamma   120.00039851
_symmetry_Int_Tables_number   1
_chemical_formula_structural   LiSn4(PO4)3
_chemical_formula_sum   'Li2 Sn8 P6 O24'
_cell_volume   578.38184390
_cell_formula_units_Z   2
loop_
 _symmetry_equiv_pos_site_id
 _symmetry_equiv_pos_as_xyz
  1  'x, y, z'
loop_
 _atom_site_type_symbol
 _atom_site_label
 _atom_site_symmetry_multiplicity
 _atom_site_fract_x
 _atom_site_fract_y
 _atom_site_fract_z
 _atom_site_occupancy
  Li  Li0  1  0.666717  0.333290  0.536927  1
  Li  Li1  1  0.333418  0.666712  0.036927  1
  Sn  Sn2  1  0.259151  0.241660  0.246803  1
  Sn  Sn3  1  0.740849  0.758328  0.746775  1
  Sn  Sn4  1  0.333338  0.666663  0.470879  1
  Sn  Sn5  1  0.017498  0.259158  0.746813  1
  Sn  Sn6  1  0.666654  0.333349  0.970887  1
  Sn  Sn7  1  0.241657  0.982500  0.746786  1
  Sn  Sn8  1  0.982527  0.740849  0.246780  1
  Sn  Sn9  1  0.758342  0.017506  0.246797  1
  P  P10  1  0.385430  0.402432  0.750985  1
  P  P11  1  0.982998  0.385429  0.250993  1
  P  P12  1  0.614552  0.597566  0.250978  1
  P  P13  1  0.597563  0.982995  0.750980  1
  P  P14  1  0.017010  0.614570  0.750985  1
  P  P15  1  0.402433  0.016999  0.250983  1
  O  O16  1  0.507749  0.673859  0.236442  1
  O  O17  1  0.344044  0.071820  0.424718  1
  O  O18  1  0.271574  0.357423  0.576819  1
  O  O19  1  0.655932  0.928169  0.924714  1
  O  O20  1  0.728441  0.642576  0.076812  1
  O  O21  1  0.509861  0.411410  0.261619  1
  O  O22  1  0.928151  0.272220  0.424708  1
  O  O23  1  0.085857  0.728437  0.576822  1
  O  O24  1  0.914158  0.271572  0.076820  1
  O  O25  1  0.166127  0.492250  0.236469  1
  O  O26  1  0.326146  0.833885  0.236443  1
  O  O27  1  0.588590  0.098473  0.261647  1
  O  O28  1  0.901551  0.490137  0.261643  1
  O  O29  1  0.071829  0.727773  0.924711  1
  O  O30  1  0.727771  0.655948  0.424712  1
  O  O31  1  0.833872  0.507747  0.736447  1
  O  O32  1  0.357411  0.085848  0.076828  1
  O  O33  1  0.490134  0.588590  0.761646  1
  O  O34  1  0.673858  0.166118  0.736451  1
  O  O35  1  0.098451  0.509866  0.761627  1
  O  O36  1  0.492254  0.326135  0.736467  1
  O  O37  1  0.642586  0.914149  0.576820  1
  O  O38  1  0.411401  0.901536  0.761631  1
  O  O39  1  0.272213  0.344054  0.924708  1
