# generated using pymatgen
data_LiSn2P5O16
_symmetry_space_group_name_H-M   'P 1'
_cell_length_a   19.04490567
_cell_length_b   7.19029750
_cell_length_c   5.20140333
_cell_angle_alpha   90.00000000
_cell_angle_beta   92.46533376
_cell_angle_gamma   90.00000000
_symmetry_Int_Tables_number   1
_chemical_formula_structural   LiSn2P5O16
_chemical_formula_sum   'Li2 Sn4 P10 O32'
_cell_volume   711.61330744
_cell_formula_units_Z   2
loop_
 _symmetry_equiv_pos_site_id
 _symmetry_equiv_pos_as_xyz
  1  'x, y, z'
loop_
 _atom_site_type_symbol
 _atom_site_label
 _atom_site_symmetry_multiplicity
 _atom_site_fract_x
 _atom_site_fract_y
 _atom_site_fract_z
 _atom_site_occupancy
  Li  Li0  1  0.965728  0.631430  0.790916  1
  Li  Li1  1  0.465728  0.368570  0.790916  1
  Sn  Sn2  1  0.410633  0.839279  0.744166  1
  Sn  Sn3  1  0.090851  0.840974  0.256183  1
  Sn  Sn4  1  0.910633  0.160721  0.744166  1
  Sn  Sn5  1  0.590851  0.159026  0.256183  1
  P  P6  1  0.868026  0.474420  0.261832  1
  P  P7  1  0.413027  0.148716  0.268195  1
  P  P8  1  0.368026  0.525580  0.261832  1
  P  P9  1  0.748949  0.259787  0.005092  1
  P  P10  1  0.585963  0.859732  0.745860  1
  P  P11  1  0.085963  0.140268  0.745860  1
  P  P12  1  0.630251  0.465023  0.723627  1
  P  P13  1  0.130251  0.534977  0.723627  1
  P  P14  1  0.248949  0.740213  0.005092  1
  P  P15  1  0.913027  0.851284  0.268195  1
  O  O16  1  0.790510  0.391800  0.210256  1
  O  O17  1  0.475771  0.223916  0.433656  1
  O  O18  1  0.975771  0.776084  0.433656  1
  O  O19  1  0.290510  0.608200  0.210256  1
  O  O20  1  0.797908  0.153975  0.839853  1
  O  O21  1  0.708090  0.411553  0.831229  1
  O  O22  1  0.639451  0.683805  0.747458  1
  O  O23  1  0.850882  0.692399  0.273593  1
  O  O24  1  0.198994  0.857076  0.152167  1
  O  O25  1  0.929195  0.870389  0.982229  1
  O  O26  1  0.017497  0.205536  0.607174  1
  O  O27  1  0.915843  0.431497  0.045973  1
  O  O28  1  0.891923  0.420700  0.534327  1
  O  O29  1  0.077985  0.095896  0.030585  1
  O  O30  1  0.880069  0.025744  0.382655  1
  O  O31  1  0.415843  0.568503  0.045973  1
  O  O32  1  0.573993  0.385350  0.888278  1
  O  O33  1  0.139451  0.316195  0.747458  1
  O  O34  1  0.391923  0.579300  0.534327  1
  O  O35  1  0.429195  0.129611  0.982229  1
  O  O36  1  0.624296  0.418727  0.439054  1
  O  O37  1  0.623447  0.013754  0.599950  1
  O  O38  1  0.350882  0.307601  0.273593  1
  O  O39  1  0.577985  0.904104  0.030585  1
  O  O40  1  0.517497  0.794464  0.607174  1
  O  O41  1  0.073993  0.614650  0.888278  1
  O  O42  1  0.123447  0.986246  0.599950  1
  O  O43  1  0.124296  0.581273  0.439054  1
  O  O44  1  0.698994  0.142924  0.152167  1
  O  O45  1  0.380069  0.974256  0.382655  1
  O  O46  1  0.208090  0.588447  0.831229  1
  O  O47  1  0.297908  0.846025  0.839853  1
