# generated using pymatgen
data_Li2V(PO3)4
_symmetry_space_group_name_H-M   'P 1'
_cell_length_a   9.47620547
_cell_length_b   10.29417941
_cell_length_c   9.25270242
_cell_angle_alpha   90.00000000
_cell_angle_beta   91.84492652
_cell_angle_gamma   90.00000000
_symmetry_Int_Tables_number   1
_chemical_formula_structural   Li2V(PO3)4
_chemical_formula_sum   'Li8 V4 P16 O48'
_cell_volume   902.13100755
_cell_formula_units_Z   4
loop_
 _symmetry_equiv_pos_site_id
 _symmetry_equiv_pos_as_xyz
  1  'x, y, z'
loop_
 _atom_site_type_symbol
 _atom_site_label
 _atom_site_symmetry_multiplicity
 _atom_site_fract_x
 _atom_site_fract_y
 _atom_site_fract_z
 _atom_site_occupancy
  Li  Li0  1  0.998999  0.825748  0.396995  1
  Li  Li1  1  0.001001  0.174252  0.603005  1
  Li  Li2  1  0.501001  0.325748  0.603005  1
  Li  Li3  1  0.997074  0.177359  0.897355  1
  Li  Li4  1  0.498999  0.674252  0.396995  1
  Li  Li5  1  0.002926  0.822641  0.102645  1
  Li  Li6  1  0.502926  0.677359  0.102645  1
  Li  Li7  1  0.497074  0.322641  0.897355  1
  V  V8  1  0.982797  0.803620  0.746910  1
  V  V9  1  0.517203  0.303620  0.253090  1
  V  V10  1  0.482797  0.696380  0.746910  1
  V  V11  1  0.017203  0.196380  0.253090  1
  P  P12  1  0.731932  0.025965  0.240121  1
  P  P13  1  0.704799  0.887417  0.950543  1
  P  P14  1  0.295201  0.112583  0.049457  1
  P  P15  1  0.768068  0.525965  0.759879  1
  P  P16  1  0.696535  0.102702  0.731022  1
  P  P17  1  0.298352  0.104959  0.480948  1
  P  P18  1  0.231932  0.474035  0.240121  1
  P  P19  1  0.196535  0.397298  0.731022  1
  P  P20  1  0.204799  0.612583  0.950543  1
  P  P21  1  0.795201  0.387417  0.049457  1
  P  P22  1  0.701648  0.895041  0.519052  1
  P  P23  1  0.803465  0.602702  0.268978  1
  P  P24  1  0.201648  0.604959  0.519052  1
  P  P25  1  0.303465  0.897298  0.268978  1
  P  P26  1  0.268068  0.974035  0.759879  1
  P  P27  1  0.798352  0.395041  0.480948  1
  O  O28  1  0.141925  0.123012  0.448194  1
  O  O29  1  0.345030  0.962723  0.423637  1
  O  O30  1  0.654970  0.037277  0.576363  1
  O  O31  1  0.637513  0.373727  0.061074  1
  O  O32  1  0.862487  0.873727  0.938926  1
  O  O33  1  0.109100  0.978961  0.754402  1
  O  O34  1  0.172650  0.582673  0.349595  1
  O  O35  1  0.389468  0.230805  0.059143  1
  O  O36  1  0.661951  0.152701  0.262770  1
  O  O37  1  0.399544  0.209973  0.437812  1
  O  O38  1  0.889468  0.269195  0.059143  1
  O  O39  1  0.667057  0.964457  0.093634  1
  O  O40  1  0.858075  0.876988  0.551806  1
  O  O41  1  0.161951  0.347299  0.262770  1
  O  O42  1  0.137513  0.126273  0.061074  1
  O  O43  1  0.610532  0.769195  0.940857  1
  O  O44  1  0.827350  0.417327  0.650405  1
  O  O45  1  0.110532  0.730805  0.940857  1
  O  O46  1  0.647252  0.621629  0.253369  1
  O  O47  1  0.672650  0.917327  0.349595  1
  O  O48  1  0.642418  0.985807  0.831563  1
  O  O49  1  0.390900  0.478961  0.245598  1
  O  O50  1  0.838049  0.652701  0.737230  1
  O  O51  1  0.362487  0.626273  0.938926  1
  O  O52  1  0.100456  0.709973  0.562188  1
  O  O53  1  0.609100  0.521039  0.754402  1
  O  O54  1  0.857582  0.485807  0.168437  1
  O  O55  1  0.398942  0.783008  0.249096  1
  O  O56  1  0.898942  0.716992  0.249096  1
  O  O57  1  0.352748  0.378371  0.746631  1
  O  O58  1  0.358075  0.623012  0.551806  1
  O  O59  1  0.601058  0.216992  0.750904  1
  O  O60  1  0.147252  0.878371  0.253369  1
  O  O61  1  0.327350  0.082673  0.650405  1
  O  O62  1  0.167057  0.535543  0.093634  1
  O  O63  1  0.899544  0.290027  0.437812  1
  O  O64  1  0.142418  0.514193  0.831563  1
  O  O65  1  0.338049  0.847299  0.737230  1
  O  O66  1  0.832943  0.464457  0.906366  1
  O  O67  1  0.101058  0.283008  0.750904  1
  O  O68  1  0.845030  0.537277  0.423637  1
  O  O69  1  0.332943  0.035543  0.906366  1
  O  O70  1  0.357582  0.014193  0.168437  1
  O  O71  1  0.890900  0.021039  0.245598  1
  O  O72  1  0.154970  0.462723  0.576363  1
  O  O73  1  0.641925  0.376988  0.448194  1
  O  O74  1  0.852748  0.121629  0.746631  1
  O  O75  1  0.600456  0.790027  0.562188  1
