# generated using pymatgen
data_Bi(PO3)4
_symmetry_space_group_name_H-M   'P 1'
_cell_length_a   13.52105690
_cell_length_b   8.30679984
_cell_length_c   10.07002657
_cell_angle_alpha   90.00000000
_cell_angle_beta   90.00000000
_cell_angle_gamma   90.00000000
_symmetry_Int_Tables_number   1
_chemical_formula_structural   Bi(PO3)4
_chemical_formula_sum   'Bi4 P16 O48'
_cell_volume   1131.03228712
_cell_formula_units_Z   4
loop_
 _symmetry_equiv_pos_site_id
 _symmetry_equiv_pos_as_xyz
  1  'x, y, z'
loop_
 _atom_site_type_symbol
 _atom_site_label
 _atom_site_symmetry_multiplicity
 _atom_site_fract_x
 _atom_site_fract_y
 _atom_site_fract_z
 _atom_site_occupancy
  Bi  Bi0  1  0.500000  0.135883  0.250000  1
  Bi  Bi1  1  0.000000  0.364117  0.750000  1
  Bi  Bi2  1  0.500000  0.864117  0.750000  1
  Bi  Bi3  1  0.000000  0.635883  0.250000  1
  P  P4  1  0.160832  0.464975  0.007968  1
  P  P5  1  0.136835  0.169384  0.502406  1
  P  P6  1  0.363165  0.669384  0.502406  1
  P  P7  1  0.863165  0.169384  0.997594  1
  P  P8  1  0.363165  0.330616  0.002406  1
  P  P9  1  0.863165  0.830616  0.497594  1
  P  P10  1  0.660832  0.964975  0.492032  1
  P  P11  1  0.136835  0.830616  0.002406  1
  P  P12  1  0.660832  0.035025  0.992032  1
  P  P13  1  0.339168  0.964975  0.007968  1
  P  P14  1  0.339168  0.035025  0.507968  1
  P  P15  1  0.839168  0.535025  0.992032  1
  P  P16  1  0.636835  0.330616  0.497594  1
  P  P17  1  0.839168  0.464975  0.492032  1
  P  P18  1  0.160832  0.535025  0.507968  1
  P  P19  1  0.636835  0.669384  0.997594  1
  O  O20  1  0.677622  0.150604  0.524353  1
  O  O21  1  0.642992  0.123625  0.121638  1
  O  O22  1  0.582232  0.943678  0.385870  1
  O  O23  1  0.394166  0.591269  0.376942  1
  O  O24  1  0.605834  0.591269  0.123058  1
  O  O25  1  0.735254  0.411699  0.432337  1
  O  O26  1  0.322378  0.849396  0.475647  1
  O  O27  1  0.235254  0.911699  0.067663  1
  O  O28  1  0.264746  0.588301  0.567663  1
  O  O29  1  0.062594  0.173542  0.616453  1
  O  O30  1  0.437406  0.673542  0.616453  1
  O  O31  1  0.562594  0.326458  0.383547  1
  O  O32  1  0.394166  0.408731  0.876942  1
  O  O33  1  0.062594  0.826458  0.116453  1
  O  O34  1  0.142992  0.623625  0.378362  1
  O  O35  1  0.357008  0.123625  0.378362  1
  O  O36  1  0.857008  0.376375  0.621638  1
  O  O37  1  0.764746  0.911699  0.432337  1
  O  O38  1  0.822378  0.650604  0.524353  1
  O  O39  1  0.264746  0.411699  0.067663  1
  O  O40  1  0.105834  0.908731  0.876942  1
  O  O41  1  0.677622  0.849396  0.024353  1
  O  O42  1  0.917768  0.443678  0.385870  1
  O  O43  1  0.582232  0.056322  0.885870  1
  O  O44  1  0.322378  0.150604  0.975647  1
  O  O45  1  0.642992  0.876375  0.621638  1
  O  O46  1  0.917768  0.556322  0.885870  1
  O  O47  1  0.357008  0.876375  0.878362  1
  O  O48  1  0.417768  0.056322  0.614130  1
  O  O49  1  0.082232  0.556322  0.614130  1
  O  O50  1  0.735254  0.588301  0.932337  1
  O  O51  1  0.937406  0.173542  0.883547  1
  O  O52  1  0.937406  0.826458  0.383547  1
  O  O53  1  0.822378  0.349396  0.024353  1
  O  O54  1  0.857008  0.623625  0.121638  1
  O  O55  1  0.235254  0.088301  0.567663  1
  O  O56  1  0.894166  0.908731  0.623058  1
  O  O57  1  0.105834  0.091269  0.376942  1
  O  O58  1  0.177622  0.349396  0.475647  1
  O  O59  1  0.177622  0.650604  0.975647  1
  O  O60  1  0.437406  0.326458  0.116453  1
  O  O61  1  0.417768  0.943678  0.114130  1
  O  O62  1  0.894166  0.091269  0.123058  1
  O  O63  1  0.142992  0.376375  0.878362  1
  O  O64  1  0.082232  0.443678  0.114130  1
  O  O65  1  0.562594  0.673542  0.883547  1
  O  O66  1  0.605834  0.408731  0.623058  1
  O  O67  1  0.764746  0.088301  0.932337  1
