# generated using pymatgen
data_Li2Fe(PO4)2
_symmetry_space_group_name_H-M   'P 1'
_cell_length_a   4.92880290
_cell_length_b   17.55322329
_cell_length_c   6.69059236
_cell_angle_alpha   90.00000000
_cell_angle_beta   93.93016024
_cell_angle_gamma   90.00000000
_symmetry_Int_Tables_number   1
_chemical_formula_structural   Li2Fe(PO4)2
_chemical_formula_sum   'Li8 Fe4 P8 O32'
_cell_volume   577.48456586
_cell_formula_units_Z   4
loop_
 _symmetry_equiv_pos_site_id
 _symmetry_equiv_pos_as_xyz
  1  'x, y, z'
loop_
 _atom_site_type_symbol
 _atom_site_label
 _atom_site_symmetry_multiplicity
 _atom_site_fract_x
 _atom_site_fract_y
 _atom_site_fract_z
 _atom_site_occupancy
  Li  Li0  1  0.723618  0.616500  0.977712  1
  Li  Li1  1  0.776382  0.116500  0.522288  1
  Li  Li2  1  0.271265  0.056333  0.289437  1
  Li  Li3  1  0.217535  0.886816  0.523374  1
  Li  Li4  1  0.690624  0.802309  0.324326  1
  Li  Li5  1  0.282465  0.386816  0.976626  1
  Li  Li6  1  0.809376  0.302309  0.175674  1
  Li  Li7  1  0.228735  0.556333  0.210563  1
  Fe  Fe8  1  0.194164  0.872253  0.005611  1
  Fe  Fe9  1  0.305836  0.372253  0.494389  1
  Fe  Fe10  1  0.799165  0.129171  0.980865  1
  Fe  Fe11  1  0.700835  0.629172  0.519135  1
  P  P12  1  0.723106  0.964002  0.227655  1
  P  P13  1  0.171430  0.714141  0.279857  1
  P  P14  1  0.666484  0.785490  0.781573  1
  P  P15  1  0.833516  0.285490  0.718427  1
  P  P16  1  0.219484  0.535702  0.725737  1
  P  P17  1  0.776894  0.464002  0.272345  1
  P  P18  1  0.280516  0.035702  0.774263  1
  P  P19  1  0.328570  0.214141  0.220143  1
  O  O20  1  0.416795  0.939275  0.221179  1
  O  O21  1  0.642899  0.696935  0.761835  1
  O  O22  1  0.362397  0.556767  0.932085  1
  O  O23  1  0.970686  0.809418  0.804651  1
  O  O24  1  0.137603  0.056767  0.567915  1
  O  O25  1  0.857101  0.196935  0.738165  1
  O  O26  1  0.010902  0.696023  0.465797  1
  O  O27  1  0.923331  0.565855  0.721634  1
  O  O28  1  0.961932  0.321637  0.911151  1
  O  O29  1  0.435066  0.160828  0.389606  1
  O  O30  1  0.538068  0.821637  0.588849  1
  O  O31  1  0.576669  0.065855  0.778366  1
  O  O32  1  0.977441  0.308666  0.527569  1
  O  O33  1  0.633316  0.431910  0.080359  1
  O  O34  1  0.771494  0.553075  0.278780  1
  O  O35  1  0.863522  0.932455  0.045648  1
  O  O36  1  0.728506  0.053075  0.221220  1
  O  O37  1  0.064934  0.660828  0.110394  1
  O  O38  1  0.112392  0.800506  0.238654  1
  O  O39  1  0.083205  0.439275  0.278821  1
  O  O40  1  0.362647  0.569779  0.546008  1
  O  O41  1  0.280547  0.947399  0.787342  1
  O  O42  1  0.387608  0.300506  0.261347  1
  O  O43  1  0.636478  0.432455  0.454352  1
  O  O44  1  0.522559  0.808666  0.972431  1
  O  O45  1  0.018686  0.199842  0.180503  1
  O  O46  1  0.137353  0.069779  0.953992  1
  O  O47  1  0.866684  0.931910  0.419641  1
  O  O48  1  0.489098  0.196023  0.034203  1
  O  O49  1  0.481314  0.699842  0.319497  1
  O  O50  1  0.219453  0.447399  0.712658  1
  O  O51  1  0.529314  0.309418  0.695349  1
