# generated using pymatgen
data_FeP2O7
_symmetry_space_group_name_H-M   'P 1'
_cell_length_a   6.45101498
_cell_length_b   10.64708805
_cell_length_c   9.67455687
_cell_angle_alpha   64.68790775
_cell_angle_beta   107.12268435
_cell_angle_gamma   94.17523911
_symmetry_Int_Tables_number   1
_chemical_formula_structural   FeP2O7
_chemical_formula_sum   'Fe4 P8 O28'
_cell_volume   572.98684293
_cell_formula_units_Z   4
loop_
 _symmetry_equiv_pos_site_id
 _symmetry_equiv_pos_as_xyz
  1  'x, y, z'
loop_
 _atom_site_type_symbol
 _atom_site_label
 _atom_site_symmetry_multiplicity
 _atom_site_fract_x
 _atom_site_fract_y
 _atom_site_fract_z
 _atom_site_occupancy
  Fe  Fe0  1  0.374618  0.252018  0.497009  1
  Fe  Fe1  1  0.622491  0.754128  0.493431  1
  Fe  Fe2  1  0.727279  0.779135  0.092457  1
  Fe  Fe3  1  0.274389  0.223957  0.897823  1
  P  P4  1  0.415437  0.462823  0.681930  1
  P  P5  1  0.073016  0.205921  0.183674  1
  P  P6  1  0.889940  0.301884  0.549171  1
  P  P7  1  0.582432  0.542417  0.311006  1
  P  P8  1  0.311341  0.964982  0.800802  1
  P  P9  1  0.928448  0.797800  0.806624  1
  P  P10  1  0.107638  0.703063  0.441881  1
  P  P11  1  0.690358  0.038931  0.189296  1
  O  O12  1  0.439012  0.322512  0.673142  1
  O  O13  1  0.550701  0.172303  0.071865  1
  O  O14  1  0.797592  0.462395  0.453275  1
  O  O15  1  0.304721  0.790191  0.456615  1
  O  O16  1  0.453878  0.832275  0.915966  1
  O  O17  1  0.002413  0.718441  0.271554  1
  O  O18  1  0.390753  0.056261  0.658049  1
  O  O19  1  0.601991  0.557398  0.657171  1
  O  O20  1  0.107574  0.175867  0.051118  1
  O  O21  1  0.558385  0.682667  0.319199  1
  O  O22  1  0.270973  0.044178  0.891274  1
  O  O23  1  0.607744  0.949812  0.330949  1
  O  O24  1  0.731817  0.958152  0.100902  1
  O  O25  1  0.692336  0.215286  0.533175  1
  O  O26  1  0.996503  0.283449  0.720768  1
  O  O27  1  0.921329  0.088632  0.266154  1
  O  O28  1  0.394781  0.448423  0.335520  1
  O  O29  1  0.080673  0.914678  0.724781  1
  O  O30  1  0.199489  0.542546  0.540500  1
  O  O31  1  0.722141  0.811013  0.673802  1
  O  O32  1  0.898200  0.825276  0.941995  1
  O  O33  1  0.361373  0.419420  0.840208  1
  O  O34  1  0.944622  0.727926  0.515873  1
  O  O35  1  0.052597  0.278643  0.473731  1
  O  O36  1  0.636103  0.584547  0.152860  1
  O  O37  1  0.042374  0.651579  0.883912  1
  O  O38  1  0.277405  0.195439  0.316221  1
  O  O39  1  0.956430  0.351577  0.104095  1
