# generated using pymatgen
data_Li3Bi2(PO4)3
_symmetry_space_group_name_H-M   'P 1'
_cell_length_a   9.56421077
_cell_length_b   9.25402004
_cell_length_c   9.56421070
_cell_angle_alpha   123.74955903
_cell_angle_beta   121.69938685
_cell_angle_gamma   56.25043984
_symmetry_Int_Tables_number   1
_chemical_formula_structural   Li3Bi2(PO4)3
_chemical_formula_sum   'Li6 Bi4 P6 O24'
_cell_volume   555.70612671
_cell_formula_units_Z   2
loop_
 _symmetry_equiv_pos_site_id
 _symmetry_equiv_pos_as_xyz
  1  'x, y, z'
loop_
 _atom_site_type_symbol
 _atom_site_label
 _atom_site_symmetry_multiplicity
 _atom_site_fract_x
 _atom_site_fract_y
 _atom_site_fract_z
 _atom_site_occupancy
  Li  Li0  1  0.108179  0.250000  0.108179  1
  Li  Li1  1  0.178048  0.571398  0.539157  1
  Li  Li2  1  0.460843  0.071398  0.821952  1
  Li  Li3  1  0.821952  0.428602  0.460843  1
  Li  Li4  1  0.539157  0.928602  0.178048  1
  Li  Li5  1  0.891821  0.750000  0.891821  1
  Bi  Bi6  1  0.662489  0.541903  0.847474  1
  Bi  Bi7  1  0.337511  0.458097  0.152526  1
  Bi  Bi8  1  0.152526  0.041903  0.337511  1
  Bi  Bi9  1  0.847474  0.958097  0.662489  1
  P  P10  1  0.043254  0.285557  0.753256  1
  P  P11  1  0.956746  0.714443  0.246744  1
  P  P12  1  0.582514  0.750000  0.582514  1
  P  P13  1  0.246744  0.785557  0.956746  1
  P  P14  1  0.753256  0.214443  0.043254  1
  P  P15  1  0.417486  0.250000  0.417486  1
  O  O16  1  0.821106  0.003710  0.926834  1
  O  O17  1  0.404981  0.219697  0.232323  1
  O  O18  1  0.232323  0.280303  0.404981  1
  O  O19  1  0.595019  0.780303  0.767677  1
  O  O20  1  0.239781  0.675524  0.027097  1
  O  O21  1  0.926834  0.496290  0.821106  1
  O  O22  1  0.972903  0.175524  0.760219  1
  O  O23  1  0.027097  0.824476  0.239781  1
  O  O24  1  0.872245  0.250695  0.240937  1
  O  O25  1  0.760219  0.324476  0.972903  1
  O  O26  1  0.564818  0.066418  0.445461  1
  O  O27  1  0.073166  0.503710  0.178894  1
  O  O28  1  0.027265  0.235062  0.561751  1
  O  O29  1  0.972735  0.764938  0.438249  1
  O  O30  1  0.561751  0.264938  0.027265  1
  O  O31  1  0.435182  0.933582  0.554539  1
  O  O32  1  0.759063  0.750695  0.127755  1
  O  O33  1  0.438249  0.735062  0.972735  1
  O  O34  1  0.240937  0.249305  0.872245  1
  O  O35  1  0.767677  0.719697  0.595019  1
  O  O36  1  0.445461  0.433582  0.564818  1
  O  O37  1  0.554539  0.566418  0.435182  1
  O  O38  1  0.127755  0.749305  0.759063  1
  O  O39  1  0.178894  0.996290  0.073166  1
