# generated using pymatgen
data_Ni3(PO4)4
_symmetry_space_group_name_H-M   'P 1'
_cell_length_a   6.37143266
_cell_length_b   9.94240889
_cell_length_c   10.65030628
_cell_angle_alpha   88.57583863
_cell_angle_beta   89.98187901
_cell_angle_gamma   71.28121946
_symmetry_Int_Tables_number   1
_chemical_formula_structural   Ni3(PO4)4
_chemical_formula_sum   'Ni6 P8 O32'
_cell_volume   638.76427385
_cell_formula_units_Z   2
loop_
 _symmetry_equiv_pos_site_id
 _symmetry_equiv_pos_as_xyz
  1  'x, y, z'
loop_
 _atom_site_type_symbol
 _atom_site_label
 _atom_site_symmetry_multiplicity
 _atom_site_fract_x
 _atom_site_fract_y
 _atom_site_fract_z
 _atom_site_occupancy
  Ni  Ni0  1  0.326892  0.307493  0.748439  1
  Ni  Ni1  1  0.634081  0.692502  0.751560  1
  Ni  Ni2  1  0.365919  0.307498  0.248440  1
  Ni  Ni3  1  0.673108  0.692507  0.251561  1
  Ni  Ni4  1  0.000000  0.500000  0.000000  1
  Ni  Ni5  1  0.500000  0.500000  0.500000  1
  P  P6  1  0.218907  0.597344  0.245778  1
  P  P7  1  0.781093  0.402656  0.754222  1
  P  P8  1  0.584992  0.167929  0.506301  1
  P  P9  1  0.247113  0.168054  0.006287  1
  P  P10  1  0.183431  0.597354  0.745723  1
  P  P11  1  0.415008  0.832071  0.493699  1
  P  P12  1  0.816569  0.402646  0.254277  1
  P  P13  1  0.752887  0.831946  0.993712  1
  O  O14  1  0.668359  0.297304  0.507104  1
  O  O15  1  0.692155  0.519344  0.643883  1
  O  O16  1  0.633808  0.840795  0.121124  1
  O  O17  1  0.320140  0.693921  0.775163  1
  O  O18  1  0.194955  0.029409  0.035811  1
  O  O19  1  0.525309  0.840742  0.621142  1
  O  O20  1  0.034349  0.297288  0.007209  1
  O  O21  1  0.585953  0.825449  0.387486  1
  O  O22  1  0.679860  0.306079  0.224837  1
  O  O23  1  0.725425  0.512992  0.362381  1
  O  O24  1  0.761403  0.513064  0.862409  1
  O  O25  1  0.331641  0.702696  0.492896  1
  O  O26  1  0.640302  0.306712  0.781428  1
  O  O27  1  0.775693  0.029401  0.535611  1
  O  O28  1  0.588379  0.825352  0.887587  1
  O  O29  1  0.366192  0.159205  0.878876  1
  O  O30  1  0.788539  0.519286  0.143910  1
  O  O31  1  0.053046  0.306765  0.281518  1
  O  O32  1  0.946954  0.693235  0.718482  1
  O  O33  1  0.238597  0.486936  0.137591  1
  O  O34  1  0.985926  0.693752  0.275154  1
  O  O35  1  0.414047  0.174551  0.612514  1
  O  O36  1  0.014074  0.306248  0.724846  1
  O  O37  1  0.274575  0.487008  0.637619  1
  O  O38  1  0.474691  0.159258  0.378858  1
  O  O39  1  0.411621  0.174648  0.112413  1
  O  O40  1  0.307845  0.480656  0.356117  1
  O  O41  1  0.359698  0.693288  0.218572  1
  O  O42  1  0.965651  0.702712  0.992791  1
  O  O43  1  0.805045  0.970591  0.964189  1
  O  O44  1  0.224307  0.970599  0.464389  1
  O  O45  1  0.211461  0.480714  0.856090  1
