# generated using pymatgen
data_BiP2O7
_symmetry_space_group_name_H-M   'P 1'
_cell_length_a   9.33317832
_cell_length_b   5.46764885
_cell_length_c   13.03626522
_cell_angle_alpha   90.00000000
_cell_angle_beta   103.41312846
_cell_angle_gamma   90.00000000
_symmetry_Int_Tables_number   1
_chemical_formula_structural   BiP2O7
_chemical_formula_sum   'Bi4 P8 O28'
_cell_volume   647.10155000
_cell_formula_units_Z   4
loop_
 _symmetry_equiv_pos_site_id
 _symmetry_equiv_pos_as_xyz
  1  'x, y, z'
loop_
 _atom_site_type_symbol
 _atom_site_label
 _atom_site_symmetry_multiplicity
 _atom_site_fract_x
 _atom_site_fract_y
 _atom_site_fract_z
 _atom_site_occupancy
  Bi  Bi0  1  0.263547  0.736008  0.527342  1
  Bi  Bi1  1  0.763547  0.763992  0.027342  1
  Bi  Bi2  1  0.236453  0.236008  0.972658  1
  Bi  Bi3  1  0.736453  0.263992  0.472658  1
  P  P4  1  0.530767  0.751159  0.349897  1
  P  P5  1  0.030767  0.748841  0.849897  1
  P  P6  1  0.570315  0.274778  0.882575  1
  P  P7  1  0.429685  0.725222  0.117425  1
  P  P8  1  0.070315  0.225222  0.382575  1
  P  P9  1  0.929685  0.774778  0.617425  1
  P  P10  1  0.469233  0.248841  0.650103  1
  P  P11  1  0.969233  0.251159  0.150103  1
  O  O12  1  0.798261  0.638902  0.548576  1
  O  O13  1  0.057178  0.275486  0.066190  1
  O  O14  1  0.557178  0.224514  0.566190  1
  O  O15  1  0.298261  0.861098  0.048576  1
  O  O16  1  0.086225  0.949394  0.404554  1
  O  O17  1  0.080844  0.674417  0.612380  1
  O  O18  1  0.942822  0.724514  0.933810  1
  O  O19  1  0.399449  0.502272  0.655630  1
  O  O20  1  0.919156  0.325583  0.387620  1
  O  O21  1  0.442822  0.775486  0.433810  1
  O  O22  1  0.643501  0.959416  0.355978  1
  O  O23  1  0.413775  0.449394  0.095446  1
  O  O24  1  0.899449  0.997728  0.155630  1
  O  O25  1  0.143501  0.540584  0.855978  1
  O  O26  1  0.856499  0.459416  0.144022  1
  O  O27  1  0.586285  0.225339  0.763052  1
  O  O28  1  0.356499  0.040584  0.644022  1
  O  O29  1  0.913715  0.725339  0.736948  1
  O  O30  1  0.419156  0.174417  0.887620  1
  O  O31  1  0.600551  0.497728  0.344370  1
  O  O32  1  0.580844  0.825583  0.112380  1
  O  O33  1  0.086285  0.274661  0.263052  1
  O  O34  1  0.201739  0.361098  0.451424  1
  O  O35  1  0.100551  0.002272  0.844370  1
  O  O36  1  0.913775  0.050606  0.595446  1
  O  O37  1  0.413715  0.774661  0.236948  1
  O  O38  1  0.586225  0.550606  0.904554  1
  O  O39  1  0.701739  0.138902  0.951424  1
