# generated using pymatgen
data_LiSn2P3O10
_symmetry_space_group_name_H-M   'P 1'
_cell_length_a   12.30863217
_cell_length_b   7.84913599
_cell_length_c   10.30806481
_cell_angle_alpha   90.00000000
_cell_angle_beta   101.51371800
_cell_angle_gamma   90.00000000
_symmetry_Int_Tables_number   1
_chemical_formula_structural   LiSn2P3O10
_chemical_formula_sum   'Li4 Sn8 P12 O40'
_cell_volume   975.84384218
_cell_formula_units_Z   4
loop_
 _symmetry_equiv_pos_site_id
 _symmetry_equiv_pos_as_xyz
  1  'x, y, z'
loop_
 _atom_site_type_symbol
 _atom_site_label
 _atom_site_symmetry_multiplicity
 _atom_site_fract_x
 _atom_site_fract_y
 _atom_site_fract_z
 _atom_site_occupancy
  Li  Li0  1  0.159921  0.846062  0.617316  1
  Li  Li1  1  0.840079  0.346062  0.882684  1
  Li  Li2  1  0.159921  0.653938  0.117316  1
  Li  Li3  1  0.840079  0.153938  0.382684  1
  Sn  Sn4  1  0.872081  0.507180  0.567337  1
  Sn  Sn5  1  0.127919  0.007180  0.932663  1
  Sn  Sn6  1  0.127919  0.492820  0.432663  1
  Sn  Sn7  1  0.872081  0.992820  0.067337  1
  Sn  Sn8  1  0.424737  0.105539  0.802839  1
  Sn  Sn9  1  0.575263  0.605539  0.697161  1
  Sn  Sn10  1  0.575263  0.894461  0.197161  1
  Sn  Sn11  1  0.424737  0.394461  0.302839  1
  P  P12  1  0.267597  0.063937  0.425586  1
  P  P13  1  0.267597  0.436063  0.925586  1
  P  P14  1  0.054536  0.905260  0.301502  1
  P  P15  1  0.651348  0.291230  0.531416  1
  P  P16  1  0.945464  0.094740  0.698498  1
  P  P17  1  0.732403  0.936063  0.574414  1
  P  P18  1  0.348652  0.791230  0.968584  1
  P  P19  1  0.732403  0.563937  0.074414  1
  P  P20  1  0.651348  0.208770  0.031416  1
  P  P21  1  0.348652  0.708770  0.468584  1
  P  P22  1  0.054536  0.594740  0.801502  1
  P  P23  1  0.945464  0.405260  0.198498  1
  O  O24  1  0.525258  0.187902  0.009185  1
  O  O25  1  0.295385  0.930353  0.863772  1
  O  O26  1  0.704674  0.295888  0.412078  1
  O  O27  1  0.070942  0.649486  0.665170  1
  O  O28  1  0.139902  0.437103  0.848910  1
  O  O29  1  0.680331  0.112810  0.612980  1
  O  O30  1  0.083545  0.771271  0.412088  1
  O  O31  1  0.704674  0.204112  0.912078  1
  O  O32  1  0.270359  0.423103  0.071540  1
  O  O33  1  0.474742  0.812098  0.990815  1
  O  O34  1  0.916455  0.228729  0.587912  1
  O  O35  1  0.295326  0.704112  0.587922  1
  O  O36  1  0.680777  0.701003  0.145370  1
  O  O37  1  0.319669  0.887190  0.387020  1
  O  O38  1  0.319223  0.298997  0.854630  1
  O  O39  1  0.319669  0.612810  0.887020  1
  O  O40  1  0.319223  0.201003  0.354630  1
  O  O41  1  0.070942  0.850514  0.165170  1
  O  O42  1  0.860098  0.937103  0.651090  1
  O  O43  1  0.680777  0.798997  0.645370  1
  O  O44  1  0.270359  0.076897  0.571540  1
  O  O45  1  0.295326  0.795888  0.087922  1
  O  O46  1  0.680331  0.387190  0.112980  1
  O  O47  1  0.860098  0.562897  0.151090  1
  O  O48  1  0.061865  0.016044  0.709528  1
  O  O49  1  0.061865  0.483956  0.209527  1
  O  O50  1  0.139902  0.062897  0.348910  1
  O  O51  1  0.729641  0.923103  0.428460  1
  O  O52  1  0.083545  0.728729  0.912088  1
  O  O53  1  0.525258  0.312098  0.509185  1
  O  O54  1  0.729641  0.576897  0.928460  1
  O  O55  1  0.704615  0.430353  0.636228  1
  O  O56  1  0.938135  0.983956  0.290473  1
  O  O57  1  0.474742  0.687902  0.490815  1
  O  O58  1  0.929058  0.350514  0.334830  1
  O  O59  1  0.704615  0.069647  0.136228  1
  O  O60  1  0.938135  0.516044  0.790472  1
  O  O61  1  0.295385  0.569647  0.363772  1
  O  O62  1  0.929058  0.149486  0.834830  1
  O  O63  1  0.916455  0.271271  0.087912  1
