# generated using pymatgen
data_Bi(PO3)4
_symmetry_space_group_name_H-M   'P 1'
_cell_length_a   10.58704972
_cell_length_b   9.01106044
_cell_length_c   10.50262823
_cell_angle_alpha   90.00000000
_cell_angle_beta   104.10257122
_cell_angle_gamma   90.00000000
_symmetry_Int_Tables_number   1
_chemical_formula_structural   Bi(PO3)4
_chemical_formula_sum   'Bi4 P16 O48'
_cell_volume   971.75857268
_cell_formula_units_Z   4
loop_
 _symmetry_equiv_pos_site_id
 _symmetry_equiv_pos_as_xyz
  1  'x, y, z'
loop_
 _atom_site_type_symbol
 _atom_site_label
 _atom_site_symmetry_multiplicity
 _atom_site_fract_x
 _atom_site_fract_y
 _atom_site_fract_z
 _atom_site_occupancy
  Bi  Bi0  1  0.999126  0.264607  0.810347  1
  Bi  Bi1  1  0.499126  0.235393  0.310347  1
  Bi  Bi2  1  0.000874  0.735393  0.189653  1
  Bi  Bi3  1  0.500874  0.764607  0.689653  1
  P  P4  1  0.239844  0.510110  0.747289  1
  P  P5  1  0.315558  0.396891  0.013767  1
  P  P6  1  0.684442  0.603109  0.986233  1
  P  P7  1  0.815558  0.103109  0.513767  1
  P  P8  1  0.760156  0.489890  0.252711  1
  P  P9  1  0.346781  0.601480  0.238666  1
  P  P10  1  0.653219  0.398520  0.761334  1
  P  P11  1  0.846781  0.898520  0.738666  1
  P  P12  1  0.153219  0.101480  0.261334  1
  P  P13  1  0.034655  0.661609  0.851115  1
  P  P14  1  0.739844  0.989890  0.247289  1
  P  P15  1  0.965345  0.338391  0.148885  1
  P  P16  1  0.465345  0.161609  0.648885  1
  P  P17  1  0.184442  0.896891  0.486233  1
  P  P18  1  0.260156  0.010110  0.752711  1
  P  P19  1  0.534655  0.838391  0.351115  1
  O  O20  1  0.856799  0.610384  0.308383  1
  O  O21  1  0.643201  0.110384  0.191617  1
  O  O22  1  0.608731  0.529401  0.672298  1
  O  O23  1  0.891269  0.029401  0.827702  1
  O  O24  1  0.177010  0.343524  0.987899  1
  O  O25  1  0.667135  0.855805  0.303620  1
  O  O26  1  0.143201  0.389616  0.691617  1
  O  O27  1  0.356799  0.889616  0.808383  1
  O  O28  1  0.175025  0.055175  0.412026  1
  O  O29  1  0.930977  0.270825  0.013902  1
  O  O30  1  0.320679  0.576605  0.663136  1
  O  O31  1  0.456538  0.980170  0.326132  1
  O  O32  1  0.036551  0.217798  0.255005  1
  O  O33  1  0.332865  0.144195  0.696380  1
  O  O34  1  0.655903  0.549067  0.122306  1
  O  O35  1  0.573852  0.701453  0.918403  1
  O  O36  1  0.430977  0.229175  0.513902  1
  O  O37  1  0.108731  0.970599  0.172298  1
  O  O38  1  0.543462  0.019830  0.673868  1
  O  O39  1  0.344097  0.450933  0.877694  1
  O  O40  1  0.731489  0.813408  0.760137  1
  O  O41  1  0.963449  0.782202  0.744995  1
  O  O42  1  0.322990  0.843524  0.512101  1
  O  O43  1  0.043462  0.480170  0.173868  1
  O  O44  1  0.677010  0.156476  0.487899  1
  O  O45  1  0.179321  0.076605  0.836864  1
  O  O46  1  0.324975  0.555175  0.087974  1
  O  O47  1  0.155903  0.950933  0.622306  1
  O  O48  1  0.820679  0.923395  0.163136  1
  O  O49  1  0.391269  0.470599  0.327702  1
  O  O50  1  0.768511  0.313408  0.739863  1
  O  O51  1  0.073852  0.798547  0.418403  1
  O  O52  1  0.926148  0.201453  0.581597  1
  O  O53  1  0.824975  0.944825  0.587974  1
  O  O54  1  0.679321  0.423395  0.336864  1
  O  O55  1  0.536551  0.282202  0.755005  1
  O  O56  1  0.167135  0.644195  0.803620  1
  O  O57  1  0.426148  0.298547  0.081597  1
  O  O58  1  0.832865  0.355805  0.196380  1
  O  O59  1  0.956538  0.519830  0.826132  1
  O  O60  1  0.268511  0.186592  0.239863  1
  O  O61  1  0.069023  0.729175  0.986098  1
  O  O62  1  0.675025  0.444825  0.912026  1
  O  O63  1  0.844097  0.049067  0.377694  1
  O  O64  1  0.822990  0.656476  0.012101  1
  O  O65  1  0.231489  0.686592  0.260137  1
  O  O66  1  0.569023  0.770825  0.486098  1
  O  O67  1  0.463449  0.717798  0.244995  1
