# generated using pymatgen
data_LiV3CrO8
_symmetry_space_group_name_H-M   'P 1'
_cell_length_a   5.35117995
_cell_length_b   6.03318439
_cell_length_c   10.56729125
_cell_angle_alpha   106.90530118
_cell_angle_beta   84.40512786
_cell_angle_gamma   72.65559464
_symmetry_Int_Tables_number   1
_chemical_formula_structural   LiV3CrO8
_chemical_formula_sum   'Li2 V6 Cr2 O16'
_cell_volume   305.17451092
_cell_formula_units_Z   2
loop_
 _symmetry_equiv_pos_site_id
 _symmetry_equiv_pos_as_xyz
  1  'x, y, z'
loop_
 _atom_site_type_symbol
 _atom_site_label
 _atom_site_symmetry_multiplicity
 _atom_site_fract_x
 _atom_site_fract_y
 _atom_site_fract_z
 _atom_site_occupancy
  Li  Li0  1  0.995115  0.630239  0.753062  1
  Li  Li1  1  0.002783  0.878111  0.252018  1
  V  V2  1  0.461504  0.073376  0.881543  1
  V  V3  1  0.531524  0.170056  0.619609  1
  V  V4  1  0.453410  0.322825  0.376643  1
  V  V5  1  0.549042  0.425696  0.119963  1
  V  V6  1  0.483716  0.572171  0.877727  1
  V  V7  1  0.512972  0.683189  0.618439  1
  Cr  Cr8  1  0.496723  0.813254  0.375777  1
  Cr  Cr9  1  0.512474  0.934149  0.123356  1
  O  O10  1  0.286664  0.082414  0.312995  1
  O  O11  1  0.308196  0.209138  0.057859  1
  O  O12  1  0.301854  0.334965  0.800727  1
  O  O13  1  0.298007  0.453459  0.565184  1
  O  O14  1  0.302207  0.579417  0.299838  1
  O  O15  1  0.309627  0.701294  0.061290  1
  O  O16  1  0.284391  0.826737  0.807162  1
  O  O17  1  0.314301  0.962328  0.568913  1
  O  O18  1  0.700622  0.050431  0.437935  1
  O  O19  1  0.702444  0.170080  0.199719  1
  O  O20  1  0.694437  0.291869  0.939148  1
  O  O21  1  0.703164  0.427187  0.697536  1
  O  O22  1  0.683916  0.536061  0.442833  1
  O  O23  1  0.717860  0.667788  0.187239  1
  O  O24  1  0.693083  0.791502  0.926463  1
  O  O25  1  0.699966  0.912260  0.697024  1
