# generated using pymatgen
data_Li8VNi3(PO4)6
_symmetry_space_group_name_H-M   'P 1'
_cell_length_a   8.79378975
_cell_length_b   8.79378943
_cell_length_c   8.54238725
_cell_angle_alpha   120.97840312
_cell_angle_beta   59.02159654
_cell_angle_gamma   119.99999732
_symmetry_Int_Tables_number   1
_chemical_formula_structural   Li8VNi3(PO4)6
_chemical_formula_sum   'Li8 V1 Ni3 P6 O24'
_cell_volume   460.07957361
_cell_formula_units_Z   1
loop_
 _symmetry_equiv_pos_site_id
 _symmetry_equiv_pos_as_xyz
  1  'x, y, z'
loop_
 _atom_site_type_symbol
 _atom_site_label
 _atom_site_symmetry_multiplicity
 _atom_site_fract_x
 _atom_site_fract_y
 _atom_site_fract_z
 _atom_site_occupancy
  Li  Li0  1  0.291247  0.356504  0.221693  1
  Li  Li1  1  0.843564  0.708753  0.221693  1
  Li  Li2  1  0.643496  0.156436  0.221693  1
  Li  Li3  1  0.499541  0.500459  0.501378  1
  Li  Li4  1  0.982064  0.017936  0.053808  1
  Li  Li5  1  0.356143  0.841298  0.787408  1
  Li  Li6  1  0.158702  0.302253  0.787408  1
  Li  Li7  1  0.697747  0.643857  0.787408  1
  V  V8  1  0.144029  0.855971  0.567914  1
  Ni  Ni9  1  0.647401  0.352599  0.057798  1
  Ni  Ni10  1  0.853490  0.146510  0.439530  1
  Ni  Ni11  1  0.354076  0.645924  0.937771  1
  P  P12  1  0.546376  0.748214  0.246600  1
  P  P13  1  0.251786  0.044763  0.246600  1
  P  P14  1  0.955237  0.453624  0.246600  1
  P  P15  1  0.047126  0.547179  0.746182  1
  P  P16  1  0.753871  0.952874  0.746182  1
  P  P17  1  0.452821  0.246129  0.746182  1
  O  O18  1  0.292604  0.881625  0.057289  1
  O  O19  1  0.118375  0.468268  0.057289  1
  O  O20  1  0.531732  0.707396  0.057289  1
  O  O21  1  0.175019  0.983338  0.422296  1
  O  O22  1  0.016662  0.613977  0.422296  1
  O  O23  1  0.745600  0.885343  0.242681  1
  O  O24  1  0.386023  0.824981  0.422296  1
  O  O25  1  0.522497  0.572044  0.270050  1
  O  O26  1  0.114657  0.102938  0.242681  1
  O  O27  1  0.427956  0.220501  0.270050  1
  O  O28  1  0.003579  0.398688  0.565933  1
  O  O29  1  0.106471  0.752878  0.751159  1
  O  O30  1  0.779499  0.477503  0.270050  1
  O  O31  1  0.829176  0.996421  0.565933  1
  O  O32  1  0.897062  0.254400  0.242681  1
  O  O33  1  0.226033  0.539359  0.735523  1
  O  O34  1  0.577802  0.773967  0.735523  1
  O  O35  1  0.895249  0.893529  0.751159  1
  O  O36  1  0.460641  0.422198  0.735523  1
  O  O37  1  0.601312  0.170824  0.565933  1
  O  O38  1  0.247122  0.104751  0.751159  1
  O  O39  1  0.462353  0.281494  0.937675  1
  O  O40  1  0.881467  0.537647  0.937675  1
  O  O41  1  0.718506  0.118533  0.937675  1
