# generated using pymatgen
data_LiP3W2O13
_symmetry_space_group_name_H-M   'P 1'
_cell_length_a   9.59885238
_cell_length_b   19.29378411
_cell_length_c   6.50937542
_cell_angle_alpha   90.00000000
_cell_angle_beta   106.75346163
_cell_angle_gamma   90.00000000
_symmetry_Int_Tables_number   1
_chemical_formula_structural   LiP3W2O13
_chemical_formula_sum   'Li4 P12 W8 O52'
_cell_volume   1154.35476011
_cell_formula_units_Z   4
loop_
 _symmetry_equiv_pos_site_id
 _symmetry_equiv_pos_as_xyz
  1  'x, y, z'
loop_
 _atom_site_type_symbol
 _atom_site_label
 _atom_site_symmetry_multiplicity
 _atom_site_fract_x
 _atom_site_fract_y
 _atom_site_fract_z
 _atom_site_occupancy
  Li  Li0  1  0.380270  0.276071  0.585005  1
  Li  Li1  1  0.380270  0.223929  0.085005  1
  Li  Li2  1  0.619731  0.776071  0.914995  1
  Li  Li3  1  0.619731  0.723929  0.414995  1
  P  P4  1  0.024182  0.673880  0.656108  1
  P  P5  1  0.024182  0.826120  0.156108  1
  P  P6  1  0.296996  0.905216  0.768036  1
  P  P7  1  0.299125  0.029918  0.511074  1
  P  P8  1  0.296996  0.594784  0.268036  1
  P  P9  1  0.299125  0.470082  0.011074  1
  P  P10  1  0.700875  0.529918  0.988926  1
  P  P11  1  0.703004  0.405216  0.731964  1
  P  P12  1  0.700875  0.970082  0.488926  1
  P  P13  1  0.703004  0.094784  0.231964  1
  P  P14  1  0.975818  0.173880  0.843892  1
  P  P15  1  0.975818  0.326120  0.343892  1
  W  W16  1  0.069210  0.338469  0.881753  1
  W  W17  1  0.069210  0.161531  0.381753  1
  W  W18  1  0.386115  0.626405  0.813368  1
  W  W19  1  0.386115  0.873595  0.313368  1
  W  W20  1  0.613885  0.126405  0.686632  1
  W  W21  1  0.613885  0.373595  0.186632  1
  W  W22  1  0.930790  0.838469  0.618247  1
  W  W23  1  0.930790  0.661531  0.118247  1
  O  O24  1  0.064010  0.151758  0.690795  1
  O  O25  1  0.061527  0.751872  0.672528  1
  O  O26  1  0.071306  0.347052  0.569337  1
  O  O27  1  0.147921  0.438755  0.915210  1
  O  O28  1  0.137931  0.884646  0.714098  1
  O  O29  1  0.064010  0.348242  0.190795  1
  O  O30  1  0.229937  0.286691  0.947075  1
  O  O31  1  0.168863  0.634109  0.710592  1
  O  O32  1  0.061527  0.748128  0.172528  1
  O  O33  1  0.071306  0.152948  0.069337  1
  O  O34  1  0.147921  0.061245  0.415210  1
  O  O35  1  0.137931  0.615354  0.214098  1
  O  O36  1  0.229937  0.213309  0.447075  1
  O  O37  1  0.168863  0.865891  0.210592  1
  O  O38  1  0.298842  0.987308  0.724900  1
  O  O39  1  0.339808  0.519939  0.856754  1
  O  O40  1  0.383242  0.869081  0.632600  1
  O  O41  1  0.298842  0.512692  0.224900  1
  O  O42  1  0.339808  0.980061  0.356754  1
  O  O43  1  0.451009  0.712961  0.823118  1
  O  O44  1  0.383960  0.603689  0.504110  1
  O  O45  1  0.406148  0.089004  0.592131  1
  O  O46  1  0.383242  0.630919  0.132600  1
  O  O47  1  0.451009  0.787039  0.323118  1
  O  O48  1  0.383960  0.896311  0.004110  1
  O  O49  1  0.406148  0.410996  0.092131  1
  O  O50  1  0.593852  0.589004  0.907869  1
  O  O51  1  0.616040  0.103690  0.995890  1
  O  O52  1  0.548991  0.212961  0.676882  1
  O  O53  1  0.616758  0.369081  0.867400  1
  O  O54  1  0.593852  0.910996  0.407869  1
  O  O55  1  0.616040  0.396311  0.495890  1
  O  O56  1  0.548991  0.287039  0.176882  1
  O  O57  1  0.660192  0.019939  0.643246  1
  O  O58  1  0.701158  0.487308  0.775100  1
  O  O59  1  0.616758  0.130919  0.367400  1
  O  O60  1  0.660192  0.480061  0.143246  1
  O  O61  1  0.701158  0.012692  0.275100  1
  O  O62  1  0.831137  0.134109  0.789408  1
  O  O63  1  0.770063  0.786691  0.552925  1
  O  O64  1  0.862069  0.384646  0.785902  1
  O  O65  1  0.852079  0.938755  0.584790  1
  O  O66  1  0.928694  0.847052  0.930663  1
  O  O67  1  0.938473  0.251872  0.827472  1
  O  O68  1  0.831137  0.365891  0.289408  1
  O  O69  1  0.770063  0.713309  0.052925  1
  O  O70  1  0.935990  0.651758  0.809205  1
  O  O71  1  0.862069  0.115354  0.285902  1
  O  O72  1  0.852079  0.561245  0.084790  1
  O  O73  1  0.928694  0.652948  0.430663  1
  O  O74  1  0.938473  0.248128  0.327472  1
  O  O75  1  0.935990  0.848242  0.309205  1
