# generated using pymatgen
data_Li6Cu2C4SO16
_symmetry_space_group_name_H-M   'P 1'
_cell_length_a   9.35200582
_cell_length_b   9.35200659
_cell_length_c   9.35200628
_cell_angle_alpha   60.00000038
_cell_angle_beta   59.99999809
_cell_angle_gamma   59.99999920
_symmetry_Int_Tables_number   1
_chemical_formula_structural   Li6Cu2C4SO16
_chemical_formula_sum   'Li12 Cu4 C8 S2 O32'
_cell_volume   578.36147555
_cell_formula_units_Z   2
loop_
 _symmetry_equiv_pos_site_id
 _symmetry_equiv_pos_as_xyz
  1  'x, y, z'
loop_
 _atom_site_type_symbol
 _atom_site_label
 _atom_site_symmetry_multiplicity
 _atom_site_fract_x
 _atom_site_fract_y
 _atom_site_fract_z
 _atom_site_occupancy
  Li  Li0  1  0.094652  0.655348  0.094652  1
  Li  Li1  1  0.094652  0.094652  0.655348  1
  Li  Li2  1  0.094652  0.655348  0.655348  1
  Li  Li3  1  0.655348  0.094652  0.094652  1
  Li  Li4  1  0.344652  0.905348  0.344652  1
  Li  Li5  1  0.344652  0.344652  0.905348  1
  Li  Li6  1  0.655348  0.655348  0.094652  1
  Li  Li7  1  0.655348  0.094652  0.655348  1
  Li  Li8  1  0.905348  0.344652  0.344652  1
  Li  Li9  1  0.344652  0.905348  0.905348  1
  Li  Li10  1  0.905348  0.344652  0.905348  1
  Li  Li11  1  0.905348  0.905348  0.344652  1
  Cu  Cu12  1  0.000000  0.500000  0.500000  1
  Cu  Cu13  1  0.500000  0.000000  0.500000  1
  Cu  Cu14  1  0.500000  0.500000  0.000000  1
  Cu  Cu15  1  0.500000  0.500000  0.500000  1
  C  C16  1  0.275843  0.275843  0.275843  1
  C  C17  1  0.275843  0.275843  0.672471  1
  C  C18  1  0.275843  0.672471  0.275843  1
  C  C19  1  0.672471  0.275843  0.275843  1
  C  C20  1  0.327529  0.724157  0.724157  1
  C  C21  1  0.724157  0.327529  0.724157  1
  C  C22  1  0.724157  0.724157  0.327529  1
  C  C23  1  0.724157  0.724157  0.724157  1
  S  S24  1  0.125000  0.125000  0.125000  1
  S  S25  1  0.875000  0.875000  0.875000  1
  O  O26  1  0.059772  0.059772  0.059772  1
  O  O27  1  0.059772  0.320685  0.059772  1
  O  O28  1  0.059772  0.059772  0.320685  1
  O  O29  1  0.320685  0.059772  0.059772  1
  O  O30  1  0.131794  0.408652  0.285427  1
  O  O31  1  0.285427  0.131794  0.408652  1
  O  O32  1  0.131794  0.285427  0.674129  1
  O  O33  1  0.408652  0.285427  0.131794  1
  O  O34  1  0.131794  0.674129  0.408652  1
  O  O35  1  0.285427  0.674129  0.131794  1
  O  O36  1  0.408652  0.131794  0.674129  1
  O  O37  1  0.285427  0.408652  0.674129  1
  O  O38  1  0.674129  0.131794  0.285427  1
  O  O39  1  0.408652  0.674129  0.285427  1
  O  O40  1  0.674129  0.408652  0.131794  1
  O  O41  1  0.325871  0.714573  0.591348  1
  O  O42  1  0.674129  0.285427  0.408652  1
  O  O43  1  0.325871  0.591348  0.868206  1
  O  O44  1  0.591348  0.325871  0.714573  1
  O  O45  1  0.325871  0.868206  0.714573  1
  O  O46  1  0.714573  0.591348  0.325871  1
  O  O47  1  0.591348  0.868206  0.325871  1
  O  O48  1  0.714573  0.325871  0.868206  1
  O  O49  1  0.868206  0.325871  0.591348  1
  O  O50  1  0.591348  0.714573  0.868206  1
  O  O51  1  0.868206  0.714573  0.325871  1
  O  O52  1  0.714573  0.868206  0.591348  1
  O  O53  1  0.868206  0.591348  0.714573  1
  O  O54  1  0.679315  0.940228  0.940228  1
  O  O55  1  0.940228  0.940228  0.679315  1
  O  O56  1  0.940228  0.679315  0.940228  1
  O  O57  1  0.940228  0.940228  0.940228  1
