# generated using pymatgen
data_Li2TiVO4
_symmetry_space_group_name_H-M   'P 1'
_cell_length_a   5.99956094
_cell_length_b   5.99956110
_cell_length_c   5.96219749
_cell_angle_alpha   119.82981390
_cell_angle_beta   119.82981144
_cell_angle_gamma   90.24292055
_symmetry_Int_Tables_number   1
_chemical_formula_structural   Li2TiVO4
_chemical_formula_sum   'Li4 Ti2 V2 O8'
_cell_volume   152.20813365
_cell_formula_units_Z   2
loop_
 _symmetry_equiv_pos_site_id
 _symmetry_equiv_pos_as_xyz
  1  'x, y, z'
loop_
 _atom_site_type_symbol
 _atom_site_label
 _atom_site_symmetry_multiplicity
 _atom_site_fract_x
 _atom_site_fract_y
 _atom_site_fract_z
 _atom_site_occupancy
  Li  Li0  1  0.000000  0.500000  0.500000  1
  Li  Li1  1  0.500000  0.500000  0.500000  1
  Li  Li2  1  0.500000  0.000000  0.000000  1
  Li  Li3  1  0.500000  0.500000  0.000000  1
  Ti  Ti4  1  0.000000  0.000000  0.500000  1
  Ti  Ti5  1  0.000000  0.000000  0.000000  1
  V  V6  1  0.000000  0.500000  0.000000  1
  V  V7  1  0.500000  0.000000  0.500000  1
  O  O8  1  0.233816  0.765712  0.003154  1
  O  O9  1  0.235232  0.233168  0.484518  1
  O  O10  1  0.234288  0.766184  0.496846  1
  O  O11  1  0.766832  0.764768  0.015482  1
  O  O12  1  0.233168  0.235232  0.984518  1
  O  O13  1  0.765712  0.233816  0.503154  1
  O  O14  1  0.764768  0.766832  0.515482  1
  O  O15  1  0.766184  0.234288  0.996846  1
