# generated using pymatgen
data_Li4Mn3Cu(PO4)4
_symmetry_space_group_name_H-M   'P 1'
_cell_length_a   4.78720538
_cell_length_b   10.44420986
_cell_length_c   6.16439059
_cell_angle_alpha   90.00000000
_cell_angle_beta   90.00000000
_cell_angle_gamma   91.08149855
_symmetry_Int_Tables_number   1
_chemical_formula_structural   Li4Mn3Cu(PO4)4
_chemical_formula_sum   'Li4 Mn3 Cu1 P4 O16'
_cell_volume   308.15585679
_cell_formula_units_Z   1
loop_
 _symmetry_equiv_pos_site_id
 _symmetry_equiv_pos_as_xyz
  1  'x, y, z'
loop_
 _atom_site_type_symbol
 _atom_site_label
 _atom_site_symmetry_multiplicity
 _atom_site_fract_x
 _atom_site_fract_y
 _atom_site_fract_z
 _atom_site_occupancy
  Li  Li0  1  0.997591  0.994338  0.999032  1
  Li  Li1  1  0.997591  0.994338  0.500968  1
  Li  Li2  1  0.501010  0.502893  0.499882  1
  Li  Li3  1  0.501010  0.502893  0.000118  1
  Mn  Mn4  1  0.478824  0.217939  0.750000  1
  Mn  Mn5  1  0.519812  0.780576  0.250000  1
  Mn  Mn6  1  0.974065  0.280467  0.250000  1
  Cu  Cu7  1  0.048343  0.713472  0.750000  1
  P  P8  1  0.081115  0.593717  0.250000  1
  P  P9  1  0.410371  0.093284  0.250000  1
  P  P10  1  0.585080  0.901025  0.750000  1
  P  P11  1  0.921028  0.411786  0.750000  1
  O  O12  1  0.207272  0.457614  0.250000  1
  O  O13  1  0.216178  0.666181  0.050439  1
  O  O14  1  0.216178  0.666181  0.449561  1
  O  O15  1  0.241330  0.406742  0.750000  1
  O  O16  1  0.259999  0.893816  0.750000  1
  O  O17  1  0.280283  0.163150  0.049451  1
  O  O18  1  0.280283  0.163150  0.450549  1
  O  O19  1  0.284289  0.955265  0.250000  1
  O  O20  1  0.702626  0.041526  0.750000  1
  O  O21  1  0.714574  0.836356  0.546186  1
  O  O22  1  0.714574  0.836356  0.953814  1
  O  O23  1  0.731617  0.097735  0.250000  1
  O  O24  1  0.761146  0.593039  0.250000  1
  O  O25  1  0.782996  0.342334  0.550008  1
  O  O26  1  0.782996  0.342334  0.949992  1
  O  O27  1  0.807821  0.551500  0.750000  1
