# generated using pymatgen
data_LiV5F11
_symmetry_space_group_name_H-M   'P 1'
_cell_length_a   8.53715309
_cell_length_b   14.44447086
_cell_length_c   8.22760070
_cell_angle_alpha   90.00000000
_cell_angle_beta   99.37503470
_cell_angle_gamma   90.00000000
_symmetry_Int_Tables_number   1
_chemical_formula_structural   LiV5F11
_chemical_formula_sum   'Li4 V20 F44'
_cell_volume   1001.03221696
_cell_formula_units_Z   4
loop_
 _symmetry_equiv_pos_site_id
 _symmetry_equiv_pos_as_xyz
  1  'x, y, z'
loop_
 _atom_site_type_symbol
 _atom_site_label
 _atom_site_symmetry_multiplicity
 _atom_site_fract_x
 _atom_site_fract_y
 _atom_site_fract_z
 _atom_site_occupancy
  Li  Li0  1  0.110570  0.564070  0.368892  1
  Li  Li1  1  0.389430  0.064070  0.131108  1
  Li  Li2  1  0.610570  0.935930  0.868892  1
  Li  Li3  1  0.889430  0.435930  0.631108  1
  V  V4  1  0.047879  0.671994  0.775399  1
  V  V5  1  0.073609  0.175328  0.579404  1
  V  V6  1  0.195523  0.324786  0.957703  1
  V  V7  1  0.228009  0.995745  0.764200  1
  V  V8  1  0.160257  0.836852  0.144020  1
  V  V9  1  0.271991  0.495745  0.735800  1
  V  V10  1  0.304477  0.824786  0.542297  1
  V  V11  1  0.426391  0.675328  0.920596  1
  V  V12  1  0.339743  0.336852  0.355980  1
  V  V13  1  0.452121  0.171994  0.724601  1
  V  V14  1  0.547879  0.828006  0.275399  1
  V  V15  1  0.660257  0.663148  0.644020  1
  V  V16  1  0.573609  0.324672  0.079404  1
  V  V17  1  0.695523  0.175214  0.457703  1
  V  V18  1  0.728009  0.504255  0.264200  1
  V  V19  1  0.839743  0.163148  0.855980  1
  V  V20  1  0.771991  0.004255  0.235800  1
  V  V21  1  0.804477  0.675214  0.042297  1
  V  V22  1  0.926391  0.824672  0.420596  1
  V  V23  1  0.952121  0.328006  0.224601  1
  F  F24  1  0.033984  0.090370  0.778190  1
  F  F25  1  0.072764  0.416665  0.783787  1
  F  F26  1  0.000422  0.247367  0.019708  1
  F  F27  1  0.101770  0.901295  0.583123  1
  F  F28  1  0.103034  0.582800  0.590956  1
  F  F29  1  0.209926  0.941188  0.991452  1
  F  F30  1  0.131786  0.258809  0.388784  1
  F  F31  1  0.225537  0.591313  0.925876  1
  F  F32  1  0.132600  0.752935  0.361583  1
  F  F33  1  0.243150  0.246533  0.753661  1
  F  F34  1  0.256850  0.746533  0.746339  1
  F  F35  1  0.159244  0.398831  0.175043  1
  F  F36  1  0.274463  0.091313  0.574124  1
  F  F37  1  0.290074  0.441188  0.508548  1
  F  F38  1  0.396966  0.082800  0.909044  1
  F  F39  1  0.398230  0.401295  0.916877  1
  F  F40  1  0.340756  0.898831  0.324957  1
  F  F41  1  0.427236  0.916665  0.716213  1
  F  F42  1  0.466016  0.590370  0.721810  1
  F  F43  1  0.367400  0.252935  0.138417  1
  F  F44  1  0.368214  0.758809  0.111216  1
  F  F45  1  0.499578  0.747367  0.480292  1
  F  F46  1  0.500422  0.252633  0.519708  1
  F  F47  1  0.631786  0.241191  0.888784  1
  F  F48  1  0.632600  0.747065  0.861583  1
  F  F49  1  0.533984  0.409630  0.278190  1
  F  F50  1  0.572764  0.083335  0.283787  1
  F  F51  1  0.659244  0.101169  0.675043  1
  F  F52  1  0.601770  0.598705  0.083123  1
  F  F53  1  0.603034  0.917200  0.090956  1
  F  F54  1  0.709926  0.558812  0.491452  1
  F  F55  1  0.725537  0.908687  0.425876  1
  F  F56  1  0.840756  0.601169  0.824957  1
  F  F57  1  0.743150  0.253467  0.253661  1
  F  F58  1  0.756850  0.753467  0.246339  1
  F  F59  1  0.867400  0.247065  0.638417  1
  F  F60  1  0.774463  0.408687  0.074124  1
  F  F61  1  0.868214  0.741191  0.611216  1
  F  F62  1  0.790074  0.058812  0.008548  1
  F  F63  1  0.896966  0.417200  0.409044  1
  F  F64  1  0.898230  0.098705  0.416877  1
  F  F65  1  0.999578  0.752633  0.980292  1
  F  F66  1  0.927236  0.583335  0.216213  1
  F  F67  1  0.966016  0.909630  0.221810  1
