# generated using pymatgen
data_Li2Fe(PO4)2
_symmetry_space_group_name_H-M   'P 1'
_cell_length_a   4.72891177
_cell_length_b   5.12847621
_cell_length_c   13.97620299
_cell_angle_alpha   97.31285028
_cell_angle_beta   89.99999996
_cell_angle_gamma   62.54547682
_symmetry_Int_Tables_number   1
_chemical_formula_structural   Li2Fe(PO4)2
_chemical_formula_sum   'Li4 Fe2 P4 O16'
_cell_volume   297.66818106
_cell_formula_units_Z   2
loop_
 _symmetry_equiv_pos_site_id
 _symmetry_equiv_pos_as_xyz
  1  'x, y, z'
loop_
 _atom_site_type_symbol
 _atom_site_label
 _atom_site_symmetry_multiplicity
 _atom_site_fract_x
 _atom_site_fract_y
 _atom_site_fract_z
 _atom_site_occupancy
  Li  Li0  1  0.679538  0.678398  0.339075  1
  Li  Li1  1  0.642062  0.678398  0.839075  1
  Li  Li2  1  0.960538  0.012306  0.744139  1
  Li  Li3  1  0.027156  0.012306  0.244139  1
  Fe  Fe4  1  0.021890  0.986822  0.508960  1
  Fe  Fe5  1  0.991287  0.986822  0.008960  1
  P  P6  1  0.670465  0.678276  0.116659  1
  P  P7  1  0.651258  0.678276  0.616659  1
  P  P8  1  0.350413  0.317627  0.386048  1
  P  P9  1  0.331960  0.317627  0.886048  1
  O  O10  1  0.842962  0.879059  0.126274  1
  O  O11  1  0.783441  0.776747  0.534384  1
  O  O12  1  0.793029  0.711131  0.712570  1
  O  O13  1  0.938705  0.354418  0.087577  1
  O  O14  1  0.706877  0.354418  0.587577  1
  O  O15  1  0.495839  0.711131  0.212570  1
  O  O16  1  0.439813  0.776747  0.034384  1
  O  O17  1  0.705803  0.084159  0.362236  1
  O  O18  1  0.277980  0.879059  0.626274  1
  O  O19  1  0.558167  0.213649  0.969045  1
  O  O20  1  0.533407  0.341806  0.804394  1
  O  O21  1  0.334385  0.628490  0.416411  1
  O  O22  1  0.037127  0.628490  0.916411  1
  O  O23  1  0.124788  0.341806  0.304394  1
  O  O24  1  0.228184  0.213649  0.469045  1
  O  O25  1  0.210038  0.084159  0.862236  1
