# generated using pymatgen
data_Li4Mn3Fe(PO4)4
_symmetry_space_group_name_H-M   'P 1'
_cell_length_a   4.78815896
_cell_length_b   12.18849769
_cell_length_c   12.18921077
_cell_angle_alpha   119.35529195
_cell_angle_beta   89.86473798
_cell_angle_gamma   90.28951785
_symmetry_Int_Tables_number   1
_chemical_formula_structural   Li4Mn3Fe(PO4)4
_chemical_formula_sum   'Li8 Mn6 Fe2 P8 O32'
_cell_volume   620.01800961
_cell_formula_units_Z   2
loop_
 _symmetry_equiv_pos_site_id
 _symmetry_equiv_pos_as_xyz
  1  'x, y, z'
loop_
 _atom_site_type_symbol
 _atom_site_label
 _atom_site_symmetry_multiplicity
 _atom_site_fract_x
 _atom_site_fract_y
 _atom_site_fract_z
 _atom_site_occupancy
  Li  Li0  1  0.499953  0.501041  0.000819  1
  Li  Li1  1  0.499940  0.749166  0.248950  1
  Li  Li2  1  0.499835  0.250179  0.750250  1
  Li  Li3  1  0.499821  0.999707  0.499789  1
  Li  Li4  1  0.000297  0.500125  0.499629  1
  Li  Li5  1  0.000241  0.250353  0.249868  1
  Li  Li6  1  0.999785  0.750337  0.750670  1
  Li  Li7  1  0.999516  0.999281  0.999597  1
  Mn  Mn8  1  0.973016  0.485043  0.766654  1
  Mn  Mn9  1  0.972928  0.983575  0.265226  1
  Mn  Mn10  1  0.526704  0.733951  0.515282  1
  Mn  Mn11  1  0.526642  0.234573  0.015839  1
  Mn  Mn12  1  0.473519  0.265829  0.484311  1
  Mn  Mn13  1  0.026639  0.015454  0.734339  1
  Fe  Fe14  1  0.471670  0.765830  0.984677  1
  Fe  Fe15  1  0.028711  0.515905  0.233942  1
  P  P16  1  0.911231  0.171117  0.578882  1
  P  P17  1  0.911054  0.671747  0.078347  1
  P  P18  1  0.589833  0.422150  0.327864  1
  P  P19  1  0.587400  0.920699  0.829272  1
  P  P20  1  0.413226  0.077787  0.170442  1
  P  P21  1  0.413193  0.579519  0.672229  1
  P  P22  1  0.087117  0.329657  0.922291  1
  P  P23  1  0.087130  0.827650  0.420301  1
  O  O24  1  0.788091  0.102476  0.647517  1
  O  O25  1  0.792200  0.602626  0.147527  1
  O  O26  1  0.774623  0.605847  0.943540  1
  O  O27  1  0.778548  0.105251  0.443481  1
  O  O28  1  0.778997  0.306367  0.644589  1
  O  O29  1  0.775523  0.806492  0.144088  1
  O  O30  1  0.766484  0.326747  0.922728  1
  O  O31  1  0.766492  0.826977  0.422972  1
  O  O32  1  0.733876  0.577232  0.672729  1
  O  O33  1  0.733820  0.077497  0.172997  1
  O  O34  1  0.724932  0.356365  0.192905  1
  O  O35  1  0.725316  0.557318  0.393864  1
  O  O36  1  0.721412  0.855083  0.694049  1
  O  O37  1  0.721806  0.056126  0.895005  1
  O  O38  1  0.707934  0.852051  0.898035  1
  O  O39  1  0.709580  0.353313  0.396645  1
  O  O40  1  0.289108  0.146216  0.102290  1
  O  O41  1  0.289145  0.647710  0.603827  1
  O  O42  1  0.278032  0.444328  0.606848  1
  O  O43  1  0.283861  0.941023  0.103828  1
  O  O44  1  0.284412  0.645883  0.808810  1
  O  O45  1  0.278498  0.142898  0.305431  1
  O  O46  1  0.266732  0.922815  0.826836  1
  O  O47  1  0.268545  0.423636  0.326137  1
  O  O48  1  0.232105  0.173152  0.577088  1
  O  O49  1  0.232208  0.674293  0.075989  1
  O  O50  1  0.215812  0.691288  0.353841  1
  O  O51  1  0.221094  0.194761  0.857068  1
  O  O52  1  0.216225  0.396255  0.058818  1
  O  O53  1  0.221514  0.893008  0.555371  1
  O  O54  1  0.211808  0.398038  0.853719  1
  O  O55  1  0.211865  0.896251  0.351963  1
