# generated using pymatgen
data_CrNi3(PO4)4
_symmetry_space_group_name_H-M   'P 1'
_cell_length_a   4.77721470
_cell_length_b   9.92484307
_cell_length_c   5.76194223
_cell_angle_alpha   90.00000000
_cell_angle_beta   90.00000000
_cell_angle_gamma   90.09525893
_symmetry_Int_Tables_number   1
_chemical_formula_structural   CrNi3(PO4)4
_chemical_formula_sum   'Cr1 Ni3 P4 O16'
_cell_volume   273.19120149
_cell_formula_units_Z   1
loop_
 _symmetry_equiv_pos_site_id
 _symmetry_equiv_pos_as_xyz
  1  'x, y, z'
loop_
 _atom_site_type_symbol
 _atom_site_label
 _atom_site_symmetry_multiplicity
 _atom_site_fract_x
 _atom_site_fract_y
 _atom_site_fract_z
 _atom_site_occupancy
  Cr  Cr0  1  0.968995  0.271431  0.250000  1
  Ni  Ni1  1  0.039227  0.726994  0.750000  1
  Ni  Ni2  1  0.457604  0.227625  0.750000  1
  Ni  Ni3  1  0.541338  0.771091  0.250000  1
  P  P4  1  0.092324  0.595388  0.250000  1
  P  P5  1  0.400895  0.092977  0.250000  1
  P  P6  1  0.591448  0.903835  0.750000  1
  P  P7  1  0.917848  0.408788  0.750000  1
  O  O8  1  0.166407  0.443807  0.250000  1
  O  O9  1  0.240376  0.667741  0.041860  1
  O  O10  1  0.240376  0.667741  0.458140  1
  O  O11  1  0.234083  0.394957  0.750000  1
  O  O12  1  0.272138  0.891154  0.750000  1
  O  O13  1  0.246389  0.170336  0.046182  1
  O  O14  1  0.246389  0.170336  0.453818  1
  O  O15  1  0.332917  0.943875  0.250000  1
  O  O16  1  0.662430  0.054037  0.750000  1
  O  O17  1  0.740504  0.829951  0.542885  1
  O  O18  1  0.740504  0.829951  0.957115  1
  O  O19  1  0.717492  0.115920  0.250000  1
  O  O20  1  0.773756  0.606078  0.250000  1
  O  O21  1  0.776408  0.330340  0.539498  1
  O  O22  1  0.776408  0.330340  0.960502  1
  O  O23  1  0.823740  0.555307  0.750000  1
