# generated using pymatgen
data_Li2Ni(PO4)2
_symmetry_space_group_name_H-M   'P 1'
_cell_length_a   8.30770166
_cell_length_b   10.36919575
_cell_length_c   8.21160029
_cell_angle_alpha   90.00000000
_cell_angle_beta   103.83777795
_cell_angle_gamma   90.00000000
_symmetry_Int_Tables_number   1
_chemical_formula_structural   Li2Ni(PO4)2
_chemical_formula_sum   'Li8 Ni4 P8 O32'
_cell_volume   686.85112879
_cell_formula_units_Z   4
loop_
 _symmetry_equiv_pos_site_id
 _symmetry_equiv_pos_as_xyz
  1  'x, y, z'
loop_
 _atom_site_type_symbol
 _atom_site_label
 _atom_site_symmetry_multiplicity
 _atom_site_fract_x
 _atom_site_fract_y
 _atom_site_fract_z
 _atom_site_occupancy
  Li  Li0  1  0.414330  0.169939  0.394755  1
  Li  Li1  1  0.898851  0.330102  0.390102  1
  Li  Li2  1  0.601149  0.830102  0.609898  1
  Li  Li3  1  0.220908  0.431680  0.449873  1
  Li  Li4  1  0.085670  0.669939  0.605245  1
  Li  Li5  1  0.829986  0.850818  0.355173  1
  Li  Li6  1  0.670014  0.350818  0.644827  1
  Li  Li7  1  0.279092  0.931680  0.550127  1
  Ni  Ni8  1  0.413845  0.334431  0.910884  1
  Ni  Ni9  1  0.587627  0.656299  0.102537  1
  Ni  Ni10  1  0.086155  0.834431  0.089116  1
  Ni  Ni11  1  0.912373  0.156299  0.897463  1
  P  P12  1  0.465035  0.582806  0.723823  1
  P  P13  1  0.542571  0.099153  0.766466  1
  P  P14  1  0.454528  0.903180  0.235415  1
  P  P15  1  0.970694  0.911546  0.714700  1
  P  P16  1  0.045472  0.403180  0.764585  1
  P  P17  1  0.957429  0.599153  0.233534  1
  P  P18  1  0.529306  0.411546  0.285301  1
  P  P19  1  0.034965  0.082806  0.276177  1
  O  O20  1  0.299785  0.886742  0.088486  1
  O  O21  1  0.704418  0.103261  0.911431  1
  O  O22  1  0.494963  0.557658  0.240977  1
  O  O23  1  0.951686  0.841087  0.877701  1
  O  O24  1  0.487228  0.961412  0.719643  1
  O  O25  1  0.298628  0.589244  0.594807  1
  O  O26  1  0.993611  0.544327  0.737411  1
  O  O27  1  0.570067  0.176591  0.616722  1
  O  O28  1  0.899998  0.143700  0.348335  1
  O  O29  1  0.096193  0.667233  0.164267  1
  O  O30  1  0.384725  0.356835  0.347989  1
  O  O31  1  0.419933  0.854158  0.401183  1
  O  O32  1  0.600954  0.824702  0.193616  1
  O  O33  1  0.508931  0.436659  0.766312  1
  O  O34  1  0.991069  0.936659  0.233688  1
  O  O35  1  0.403807  0.167233  0.835733  1
  O  O36  1  0.809355  0.894740  0.581613  1
  O  O37  1  0.506389  0.044327  0.262589  1
  O  O38  1  0.600002  0.643700  0.651665  1
  O  O39  1  0.005037  0.057658  0.759023  1
  O  O40  1  0.453166  0.655655  0.885772  1
  O  O41  1  0.115275  0.856835  0.652011  1
  O  O42  1  0.929933  0.676591  0.383278  1
  O  O43  1  0.201372  0.089244  0.405193  1
  O  O44  1  0.012772  0.461412  0.280357  1
  O  O45  1  0.795582  0.603261  0.088569  1
  O  O46  1  0.899046  0.324702  0.806384  1
  O  O47  1  0.690645  0.394740  0.418387  1
  O  O48  1  0.200215  0.386742  0.911514  1
  O  O49  1  0.080067  0.354158  0.598817  1
  O  O50  1  0.548314  0.341087  0.122299  1
  O  O51  1  0.046834  0.155655  0.114228  1
