# generated using pymatgen
data_Ni2(SO4)3
_symmetry_space_group_name_H-M   'P 1'
_cell_length_a   8.39650383
_cell_length_b   11.93028433
_cell_length_c   8.71855077
_cell_angle_alpha   90.00000000
_cell_angle_beta   90.00000000
_cell_angle_gamma   90.80412864
_symmetry_Int_Tables_number   1
_chemical_formula_structural   Ni2(SO4)3
_chemical_formula_sum   'Ni8 S12 O48'
_cell_volume   873.27456625
_cell_formula_units_Z   4
loop_
 _symmetry_equiv_pos_site_id
 _symmetry_equiv_pos_as_xyz
  1  'x, y, z'
loop_
 _atom_site_type_symbol
 _atom_site_label
 _atom_site_symmetry_multiplicity
 _atom_site_fract_x
 _atom_site_fract_y
 _atom_site_fract_z
 _atom_site_occupancy
  Ni  Ni0  1  0.247426  0.885959  0.027522  1
  Ni  Ni1  1  0.252574  0.614041  0.527522  1
  Ni  Ni2  1  0.252794  0.383489  0.970030  1
  Ni  Ni3  1  0.247206  0.116511  0.470030  1
  Ni  Ni4  1  0.752794  0.883489  0.529970  1
  Ni  Ni5  1  0.747206  0.616511  0.029970  1
  Ni  Ni6  1  0.747426  0.385959  0.472478  1
  Ni  Ni7  1  0.752574  0.114041  0.972478  1
  S  S8  1  0.043985  0.492835  0.247825  1
  S  S9  1  0.107031  0.849862  0.383730  1
  S  S10  1  0.110378  0.146593  0.110813  1
  S  S11  1  0.392969  0.650138  0.883730  1
  S  S12  1  0.389622  0.353407  0.610813  1
  S  S13  1  0.456015  0.007165  0.747825  1
  S  S14  1  0.543985  0.992835  0.252175  1
  S  S15  1  0.610378  0.646593  0.389187  1
  S  S16  1  0.607031  0.349862  0.116270  1
  S  S17  1  0.889622  0.853407  0.889187  1
  S  S18  1  0.892969  0.150138  0.616270  1
  S  S19  1  0.956015  0.507165  0.752175  1
  O  O20  1  0.051546  0.450149  0.868791  1
  O  O21  1  0.054916  0.900369  0.883629  1
  O  O22  1  0.051490  0.598343  0.678101  1
  O  O23  1  0.055070  0.189477  0.573482  1
  O  O24  1  0.087357  0.577662  0.365777  1
  O  O25  1  0.124971  0.826958  0.215855  1
  O  O26  1  0.132896  0.967955  0.418085  1
  O  O27  1  0.120359  0.241092  0.002119  1
  O  O28  1  0.156939  0.183766  0.266533  1
  O  O29  1  0.189003  0.443969  0.181015  1
  O  O30  1  0.227627  0.780254  0.463287  1
  O  O31  1  0.272373  0.719746  0.963287  1
  O  O32  1  0.221047  0.056423  0.063233  1
  O  O33  1  0.278953  0.443577  0.563233  1
  O  O34  1  0.310997  0.056031  0.681015  1
  O  O35  1  0.343061  0.316234  0.766533  1
  O  O36  1  0.367104  0.532045  0.918085  1
  O  O37  1  0.379641  0.258908  0.502119  1
  O  O38  1  0.375029  0.673042  0.715855  1
  O  O39  1  0.412643  0.922338  0.865777  1
  O  O40  1  0.448510  0.901657  0.178101  1
  O  O41  1  0.445084  0.599631  0.383629  1
  O  O42  1  0.444930  0.310523  0.073482  1
  O  O43  1  0.448454  0.049851  0.368791  1
  O  O44  1  0.551546  0.950149  0.631209  1
  O  O45  1  0.555070  0.689477  0.926518  1
  O  O46  1  0.554916  0.400369  0.616371  1
  O  O47  1  0.551490  0.098343  0.821899  1
  O  O48  1  0.587357  0.077662  0.134223  1
  O  O49  1  0.624971  0.326958  0.284145  1
  O  O50  1  0.620359  0.741092  0.497881  1
  O  O51  1  0.632896  0.467955  0.081915  1
  O  O52  1  0.656939  0.683766  0.233467  1
  O  O53  1  0.689003  0.943969  0.318985  1
  O  O54  1  0.721047  0.556423  0.436767  1
  O  O55  1  0.778953  0.943577  0.936767  1
  O  O56  1  0.727627  0.280254  0.036713  1
  O  O57  1  0.772373  0.219746  0.536713  1
  O  O58  1  0.810997  0.556031  0.818985  1
  O  O59  1  0.843061  0.816234  0.733467  1
  O  O60  1  0.879641  0.758908  0.997881  1
  O  O61  1  0.867104  0.032045  0.581915  1
  O  O62  1  0.875029  0.173042  0.784145  1
  O  O63  1  0.912643  0.422338  0.634223  1
  O  O64  1  0.944930  0.810523  0.426518  1
  O  O65  1  0.948510  0.401657  0.321899  1
  O  O66  1  0.945084  0.099631  0.116371  1
  O  O67  1  0.948454  0.549851  0.131209  1
