# generated using pymatgen
data_Li2AlVO4
_symmetry_space_group_name_H-M   'P 1'
_cell_length_a   5.11225558
_cell_length_b   5.89236190
_cell_length_c   7.65385606
_cell_angle_alpha   79.24362929
_cell_angle_beta   71.70390726
_cell_angle_gamma   89.77990431
_symmetry_Int_Tables_number   1
_chemical_formula_structural   Li2AlVO4
_chemical_formula_sum   'Li6 Al3 V3 O12'
_cell_volume   214.68664531
_cell_formula_units_Z   3
loop_
 _symmetry_equiv_pos_site_id
 _symmetry_equiv_pos_as_xyz
  1  'x, y, z'
loop_
 _atom_site_type_symbol
 _atom_site_label
 _atom_site_symmetry_multiplicity
 _atom_site_fract_x
 _atom_site_fract_y
 _atom_site_fract_z
 _atom_site_occupancy
  Li  Li0  1  0.000391  0.503591  0.999833  1
  Li  Li1  1  0.000413  0.341862  0.662913  1
  Li  Li2  1  0.000935  0.988072  0.999556  1
  Li  Li3  1  0.998529  0.663918  0.333360  1
  Li  Li4  1  0.999883  0.177797  0.334248  1
  Li  Li5  1  0.999558  0.824639  0.670254  1
  Al  Al6  1  0.499391  0.741028  0.999418  1
  Al  Al7  1  0.501442  0.425802  0.334669  1
  Al  Al8  1  0.500838  0.583252  0.667342  1
  V  V9  1  0.501018  0.249933  0.001545  1
  V  V10  1  0.498974  0.918445  0.330694  1
  V  V11  1  0.499235  0.082357  0.664021  1
  O  O12  1  0.273745  0.944428  0.156032  1
  O  O13  1  0.285102  0.467623  0.163706  1
  O  O14  1  0.276197  0.149170  0.488587  1
  O  O15  1  0.284192  0.622650  0.496954  1
  O  O16  1  0.279311  0.302532  0.823459  1
  O  O17  1  0.282333  0.775662  0.830134  1
  O  O18  1  0.716089  0.695715  0.167594  1
  O  O19  1  0.724090  0.216847  0.180376  1
  O  O20  1  0.717489  0.391021  0.502930  1
  O  O21  1  0.722257  0.864498  0.510784  1
  O  O22  1  0.717845  0.547221  0.834144  1
  O  O23  1  0.720744  0.021939  0.847448  1
