# generated using pymatgen
data_Li7Ti12NbO30
_symmetry_space_group_name_H-M   'P 1'
_cell_length_a   5.14075304
_cell_length_b   23.75401753
_cell_length_c   5.14083823
_cell_angle_alpha   96.21771085
_cell_angle_beta   60.00105625
_cell_angle_gamma   96.21453415
_symmetry_Int_Tables_number   1
_chemical_formula_structural   Li7Ti12NbO30
_chemical_formula_sum   'Li7 Ti12 Nb1 O30'
_cell_volume   539.40082359
_cell_formula_units_Z   1
loop_
 _symmetry_equiv_pos_site_id
 _symmetry_equiv_pos_as_xyz
  1  'x, y, z'
loop_
 _atom_site_type_symbol
 _atom_site_label
 _atom_site_symmetry_multiplicity
 _atom_site_fract_x
 _atom_site_fract_y
 _atom_site_fract_z
 _atom_site_occupancy
  Li  Li0  1  0.025885  0.077815  0.025913  1
  Li  Li1  1  0.245800  0.737394  0.245739  1
  Li  Li2  1  0.608442  0.825529  0.608468  1
  Li  Li3  1  0.391023  0.172986  0.390905  1
  Li  Li4  1  0.526291  0.579054  0.526367  1
  Li  Li5  1  0.973893  0.921804  0.973921  1
  Li  Li6  1  0.890172  0.670623  0.890287  1
  Ti  Ti7  1  0.105087  0.315071  0.105173  1
  Ti  Ti8  1  0.162078  0.486452  0.162326  1
  Ti  Ti9  1  0.203904  0.611802  0.203937  1
  Ti  Ti10  1  0.065204  0.195445  0.065063  1
  Ti  Ti11  1  0.296020  0.888329  0.296124  1
  Ti  Ti12  1  0.662338  0.986783  0.662185  1
  Ti  Ti13  1  0.338355  0.014898  0.338174  1
  Ti  Ti14  1  0.432587  0.297635  0.432694  1
  Ti  Ti15  1  0.566313  0.698946  0.566365  1
  Ti  Ti16  1  0.704519  0.113463  0.704384  1
  Ti  Ti17  1  0.797870  0.393459  0.798004  1
  Ti  Ti18  1  0.838096  0.514452  0.838229  1
  Nb  Nb19  1  0.932269  0.796569  0.932094  1
  O  O20  1  0.006144  0.952883  0.350838  1
  O  O21  1  0.015922  0.150376  0.374778  1
  O  O22  1  0.595860  0.952890  0.005974  1
  O  O23  1  0.149100  0.549319  0.495377  1
  O  O24  1  0.351000  0.952902  0.595759  1
  O  O25  1  0.254887  0.749932  0.625115  1
  O  O26  1  0.112119  0.348977  0.457383  1
  O  O27  1  0.067996  0.450620  0.876107  1
  O  O28  1  0.244284  0.851322  0.985168  1
  O  O29  1  0.327685  0.254651  0.163900  1
  O  O30  1  0.507921  0.651340  0.263551  1
  O  O31  1  0.621670  0.851312  0.244170  1
  O  O32  1  0.506514  0.450597  0.068031  1
  O  O33  1  0.263430  0.651379  0.880005  1
  O  O34  1  0.163686  0.254659  0.763343  1
  O  O35  1  0.869769  0.749885  0.254596  1
  O  O36  1  0.779760  0.348953  0.112038  1
  O  O37  1  0.495257  0.549317  0.904867  1
  O  O38  1  0.374892  0.150389  0.759530  1
  O  O39  1  0.457233  0.348957  0.779799  1
  O  O40  1  0.625234  0.749933  0.869707  1
  O  O41  1  0.759720  0.150358  0.015843  1
  O  O42  1  0.904695  0.549302  0.149378  1
  O  O43  1  0.879960  0.651390  0.507988  1
  O  O44  1  0.763195  0.254660  0.327873  1
  O  O45  1  0.648290  0.049866  0.406705  1
  O  O46  1  0.876063  0.450594  0.506571  1
  O  O47  1  0.406805  0.049881  0.994792  1
  O  O48  1  0.985201  0.851321  0.621650  1
  O  O49  1  0.994877  0.049854  0.648224  1
