# generated using pymatgen
data_Li4TiFe3Cu2(PO4)6
_symmetry_space_group_name_H-M   'P 1'
_cell_length_a   8.57580820
_cell_length_b   8.72801790
_cell_length_c   8.67570262
_cell_angle_alpha   61.26068380
_cell_angle_beta   61.54831919
_cell_angle_gamma   61.57689223
_symmetry_Int_Tables_number   1
_chemical_formula_structural   Li4TiFe3Cu2(PO4)6
_chemical_formula_sum   'Li4 Ti1 Fe3 Cu2 P6 O24'
_cell_volume   474.24178684
_cell_formula_units_Z   1
loop_
 _symmetry_equiv_pos_site_id
 _symmetry_equiv_pos_as_xyz
  1  'x, y, z'
loop_
 _atom_site_type_symbol
 _atom_site_label
 _atom_site_symmetry_multiplicity
 _atom_site_fract_x
 _atom_site_fract_y
 _atom_site_fract_z
 _atom_site_occupancy
  Li  Li0  1  0.745743  0.153312  0.352581  1
  Li  Li1  1  0.284375  0.843169  0.657510  1
  Li  Li2  1  0.656290  0.283992  0.844847  1
  Li  Li3  1  0.844030  0.655662  0.284069  1
  Ti  Ti4  1  0.852139  0.847027  0.852365  1
  Fe  Fe5  1  0.145836  0.145313  0.140912  1
  Fe  Fe6  1  0.354093  0.362509  0.357560  1
  Fe  Fe7  1  0.649147  0.648632  0.652164  1
  Cu  Cu8  1  0.024206  0.001070  0.986514  1
  Cu  Cu9  1  0.481201  0.514020  0.504772  1
  P  P10  1  0.747093  0.447250  0.046924  1
  P  P11  1  0.048739  0.745777  0.447389  1
  P  P12  1  0.445979  0.046187  0.747833  1
  P  P13  1  0.243573  0.540948  0.963688  1
  P  P14  1  0.548036  0.964639  0.246690  1
  P  P15  1  0.957683  0.241218  0.540257  1
  O  O16  1  0.129542  0.283931  0.500167  1
  O  O17  1  0.297712  0.511999  0.122278  1
  O  O18  1  0.056697  0.917522  0.269513  1
  O  O19  1  0.540859  0.118472  0.293537  1
  O  O20  1  0.991368  0.799541  0.621891  1
  O  O21  1  0.239766  0.588970  0.440062  1
  O  O22  1  0.259667  0.077370  0.907327  1
  O  O23  1  0.461475  0.225485  0.578817  1
  O  O24  1  0.174467  0.389527  0.005804  1
  O  O25  1  0.592583  0.435941  0.240517  1
  O  O26  1  0.083676  0.736468  0.933251  1
  O  O27  1  0.381732  0.018314  0.190434  1
  O  O28  1  0.618785  0.986120  0.809384  1
  O  O29  1  0.904726  0.258483  0.076981  1
  O  O30  1  0.404233  0.559643  0.772357  1
  O  O31  1  0.805538  0.616544  0.992009  1
  O  O32  1  0.560642  0.775372  0.408037  1
  O  O33  1  0.739728  0.926940  0.083349  1
  O  O34  1  0.769861  0.402497  0.567701  1
  O  O35  1  0.975174  0.184576  0.388777  1
  O  O36  1  0.463345  0.893671  0.694706  1
  O  O37  1  0.935367  0.077725  0.734592  1
  O  O38  1  0.687120  0.467229  0.897169  1
  O  O39  1  0.897770  0.683932  0.468265  1
