# generated using pymatgen
data_Li5FeOF5
_symmetry_space_group_name_H-M   'P 1'
_cell_length_a   5.14354516
_cell_length_b   5.14354516
_cell_length_c   10.35391534
_cell_angle_alpha   79.83501980
_cell_angle_beta   100.16498020
_cell_angle_gamma   60.57181620
_symmetry_Int_Tables_number   1
_chemical_formula_structural   Li5FeOF5
_chemical_formula_sum   'Li10 Fe2 O2 F10'
_cell_volume   223.49454713
_cell_formula_units_Z   2
loop_
 _symmetry_equiv_pos_site_id
 _symmetry_equiv_pos_as_xyz
  1  'x, y, z'
loop_
 _atom_site_type_symbol
 _atom_site_label
 _atom_site_symmetry_multiplicity
 _atom_site_fract_x
 _atom_site_fract_y
 _atom_site_fract_z
 _atom_site_occupancy
  Li  Li0  1  0.163035  0.199270  0.740377  1
  Li  Li1  1  0.483950  0.502939  0.746633  1
  Li  Li2  1  0.850397  0.812174  0.744715  1
  Li  Li3  1  0.323661  0.345876  0.507485  1
  Li  Li4  1  0.683007  0.661541  0.508563  1
  Li  Li5  1  0.187826  0.149603  0.244715  1
  Li  Li6  1  0.800730  0.836965  0.240377  1
  Li  Li7  1  0.497061  0.516050  0.246633  1
  Li  Li8  1  0.338459  0.316993  0.008563  1
  Li  Li9  1  0.654124  0.676339  0.007485  1
  Fe  Fe10  1  0.004717  0.974647  0.506811  1
  Fe  Fe11  1  0.025353  0.995283  0.006811  1
  O  O12  1  0.083225  0.590969  0.621640  1
  O  O13  1  0.409031  0.916775  0.121640  1
  F  F14  1  0.256193  0.743837  0.871089  1
  F  F15  1  0.425954  0.927473  0.626862  1
  F  F16  1  0.256163  0.743807  0.371089  1
  F  F17  1  0.072527  0.574046  0.126862  1
  F  F18  1  0.907504  0.432551  0.869261  1
  F  F19  1  0.607708  0.079591  0.880055  1
  F  F20  1  0.745302  0.263785  0.626510  1
  F  F21  1  0.920409  0.392292  0.380055  1
  F  F22  1  0.567449  0.092496  0.369261  1
  F  F23  1  0.736215  0.254698  0.126510  1
