# generated using pymatgen
data_Li2MnSiO4
_symmetry_space_group_name_H-M   'P 1'
_cell_length_a   11.10720073
_cell_length_b   5.09774692
_cell_length_c   6.38335967
_cell_angle_alpha   90.00001808
_cell_angle_beta   89.99943951
_cell_angle_gamma   90.00036554
_symmetry_Int_Tables_number   1
_chemical_formula_structural   Li2MnSiO4
_chemical_formula_sum   'Li8 Mn4 Si4 O16'
_cell_volume   361.43666543
_cell_formula_units_Z   4
loop_
 _symmetry_equiv_pos_site_id
 _symmetry_equiv_pos_as_xyz
  1  'x, y, z'
loop_
 _atom_site_type_symbol
 _atom_site_label
 _atom_site_symmetry_multiplicity
 _atom_site_fract_x
 _atom_site_fract_y
 _atom_site_fract_z
 _atom_site_occupancy
  Li  Li0  1  0.094458  0.707559  0.870844  1
  Li  Li1  1  0.172620  0.196515  0.117411  1
  Li  Li2  1  0.327381  0.696519  0.617409  1
  Li  Li3  1  0.405544  0.207552  0.370836  1
  Li  Li4  1  0.594455  0.792450  0.870841  1
  Li  Li5  1  0.672619  0.303475  0.117408  1
  Li  Li6  1  0.827380  0.803484  0.617411  1
  Li  Li7  1  0.905542  0.292442  0.370841  1
  Mn  Mn8  1  0.086852  0.698192  0.362613  1
  Mn  Mn9  1  0.413145  0.198216  0.862601  1
  Mn  Mn10  1  0.586852  0.801784  0.362609  1
  Mn  Mn11  1  0.913151  0.301827  0.862613  1
  Si  Si12  1  0.164177  0.189967  0.618080  1
  Si  Si13  1  0.335822  0.689967  0.118079  1
  Si  Si14  1  0.664178  0.310027  0.618081  1
  Si  Si15  1  0.835823  0.810037  0.118079  1
  O  O16  1  0.097864  0.300120  0.833596  1
  O  O17  1  0.090677  0.285082  0.404109  1
  O  O18  1  0.164849  0.866054  0.622656  1
  O  O19  1  0.195693  0.802461  0.112807  1
  O  O20  1  0.304302  0.302472  0.612791  1
  O  O21  1  0.335151  0.366058  0.122653  1
  O  O22  1  0.409318  0.785091  0.904110  1
  O  O23  1  0.402139  0.800118  0.333597  1
  O  O24  1  0.597860  0.199876  0.833595  1
  O  O25  1  0.590681  0.214897  0.404107  1
  O  O26  1  0.664848  0.633941  0.622654  1
  O  O27  1  0.695697  0.697530  0.112799  1
  O  O28  1  0.804309  0.197536  0.612810  1
  O  O29  1  0.835151  0.133947  0.122651  1
  O  O30  1  0.909323  0.714921  0.904113  1
  O  O31  1  0.902138  0.699881  0.333595  1
