# generated using pymatgen
data_LiFeSiO4
_symmetry_space_group_name_H-M   'P 1'
_cell_length_a   5.97309537
_cell_length_b   11.39174850
_cell_length_c   5.24471792
_cell_angle_alpha   90.00000000
_cell_angle_beta   90.00000000
_cell_angle_gamma   90.00000000
_symmetry_Int_Tables_number   1
_chemical_formula_structural   LiFeSiO4
_chemical_formula_sum   'Li4 Fe4 Si4 O16'
_cell_volume   356.87158731
_cell_formula_units_Z   4
loop_
 _symmetry_equiv_pos_site_id
 _symmetry_equiv_pos_as_xyz
  1  'x, y, z'
loop_
 _atom_site_type_symbol
 _atom_site_label
 _atom_site_symmetry_multiplicity
 _atom_site_fract_x
 _atom_site_fract_y
 _atom_site_fract_z
 _atom_site_occupancy
  Li  Li0  1  0.487678  0.170751  0.695350  1
  Li  Li1  1  0.487678  0.670751  0.804650  1
  Li  Li2  1  0.987678  0.329249  0.195350  1
  Li  Li3  1  0.987678  0.829249  0.304650  1
  Fe  Fe4  1  0.257637  0.425524  0.817512  1
  Fe  Fe5  1  0.257637  0.925524  0.682488  1
  Fe  Fe6  1  0.757637  0.574476  0.182488  1
  Fe  Fe7  1  0.757637  0.074476  0.317512  1
  Si  Si8  1  0.249821  0.584139  0.316323  1
  Si  Si9  1  0.249821  0.084139  0.183677  1
  Si  Si10  1  0.749821  0.415861  0.683677  1
  Si  Si11  1  0.749821  0.915861  0.816323  1
  O  O12  1  0.023424  0.161959  0.247886  1
  O  O13  1  0.023424  0.661959  0.252114  1
  O  O14  1  0.272144  0.066413  0.872851  1
  O  O15  1  0.229367  0.455334  0.173961  1
  O  O16  1  0.272144  0.566413  0.627149  1
  O  O17  1  0.229367  0.955334  0.326039  1
  O  O18  1  0.475680  0.151467  0.288607  1
  O  O19  1  0.475680  0.651467  0.211393  1
  O  O20  1  0.523424  0.838041  0.752114  1
  O  O21  1  0.523424  0.338041  0.747886  1
  O  O22  1  0.729367  0.544666  0.826039  1
  O  O23  1  0.729367  0.044666  0.673961  1
  O  O24  1  0.772144  0.433587  0.372851  1
  O  O25  1  0.772144  0.933587  0.127149  1
  O  O26  1  0.975680  0.348533  0.788607  1
  O  O27  1  0.975680  0.848533  0.711393  1
