# generated using pymatgen
data_Li6Fe3Ni(PO4)6
_symmetry_space_group_name_H-M   'P 1'
_cell_length_a   8.56982579
_cell_length_b   8.62246297
_cell_length_c   8.61649821
_cell_angle_alpha   61.70081516
_cell_angle_beta   61.84760009
_cell_angle_gamma   61.67502348
_symmetry_Int_Tables_number   1
_chemical_formula_structural   Li6Fe3Ni(PO4)6
_chemical_formula_sum   'Li6 Fe3 Ni1 P6 O24'
_cell_volume   467.77813012
_cell_formula_units_Z   1
loop_
 _symmetry_equiv_pos_site_id
 _symmetry_equiv_pos_as_xyz
  1  'x, y, z'
loop_
 _atom_site_type_symbol
 _atom_site_label
 _atom_site_symmetry_multiplicity
 _atom_site_fract_x
 _atom_site_fract_y
 _atom_site_fract_z
 _atom_site_occupancy
  Li  Li0  1  0.019867  0.001102  0.988792  1
  Li  Li1  1  0.754152  0.147765  0.349219  1
  Li  Li2  1  0.480508  0.510517  0.495073  1
  Li  Li3  1  0.219763  0.846915  0.658319  1
  Li  Li4  1  0.662132  0.221043  0.844882  1
  Li  Li5  1  0.842786  0.659720  0.217929  1
  Fe  Fe6  1  0.145020  0.146846  0.139258  1
  Fe  Fe7  1  0.354614  0.360148  0.352940  1
  Fe  Fe8  1  0.645914  0.645449  0.647819  1
  Ni  Ni9  1  0.855098  0.853029  0.853615  1
  P  P10  1  0.050859  0.750306  0.453086  1
  P  P11  1  0.452333  0.050594  0.749593  1
  P  P12  1  0.749492  0.456406  0.049265  1
  P  P13  1  0.250511  0.543803  0.957288  1
  P  P14  1  0.545755  0.962384  0.251171  1
  P  P15  1  0.954813  0.249029  0.538717  1
  O  O16  1  0.123732  0.303409  0.484761  1
  O  O17  1  0.315884  0.504568  0.113562  1
  O  O18  1  0.048758  0.918598  0.269162  1
  O  O19  1  0.529091  0.116024  0.307868  1
  O  O20  1  0.242611  0.594272  0.424673  1
  O  O21  1  0.030825  0.803438  0.610113  1
  O  O22  1  0.261583  0.068010  0.907393  1
  O  O23  1  0.441604  0.236502  0.582729  1
  O  O24  1  0.595476  0.425665  0.244655  1
  O  O25  1  0.195985  0.382040  0.993291  1
  O  O26  1  0.086956  0.732439  0.946828  1
  O  O27  1  0.371075  0.007332  0.210275  1
  O  O28  1  0.611947  0.027603  0.802636  1
  O  O29  1  0.904808  0.260821  0.068550  1
  O  O30  1  0.805474  0.611004  0.027241  1
  O  O31  1  0.404156  0.572669  0.761162  1
  O  O32  1  0.572679  0.766287  0.405032  1
  O  O33  1  0.729383  0.946667  0.083237  1
  O  O34  1  0.965918  0.201140  0.381523  1
  O  O35  1  0.762336  0.406576  0.574999  1
  O  O36  1  0.490535  0.887840  0.692367  1
  O  O37  1  0.949169  0.085904  0.726415  1
  O  O38  1  0.688684  0.495441  0.889000  1
  O  O39  1  0.887716  0.689693  0.496562  1
