# generated using pymatgen
data_V4O7F5
_symmetry_space_group_name_H-M   'P 1'
_cell_length_a   5.24002490
_cell_length_b   5.31602693
_cell_length_c   9.15308603
_cell_angle_alpha   72.26877809
_cell_angle_beta   90.56025971
_cell_angle_gamma   118.52641032
_symmetry_Int_Tables_number   1
_chemical_formula_structural   V4O7F5
_chemical_formula_sum   'V4 O7 F5'
_cell_volume   210.55124847
_cell_formula_units_Z   1
loop_
 _symmetry_equiv_pos_site_id
 _symmetry_equiv_pos_as_xyz
  1  'x, y, z'
loop_
 _atom_site_type_symbol
 _atom_site_label
 _atom_site_symmetry_multiplicity
 _atom_site_fract_x
 _atom_site_fract_y
 _atom_site_fract_z
 _atom_site_occupancy
  V  V0  1  0.786515  0.512386  0.771275  1
  V  V1  1  0.949273  -0.000202  0.016722  1
  V  V2  1  0.546817  0.993793  0.508494  1
  V  V3  1  0.254966  0.459385  0.257419  1
  O  O4  1  0.889911  0.235243  0.409932  1
  O  O5  1  0.905669  0.242698  0.835548  1
  O  O6  1  0.392721  0.236760  0.341289  1
  O  O7  1  0.592205  0.736398  0.653043  1
  O  O8  1  0.588842  0.751308  0.085624  1
  O  O9  1  0.043293  0.240626  0.118910  1
  O  O10  1  0.943975  0.735283  0.874108  1
  F  F11  1  0.529722  0.222271  0.622016  1
  F  F12  1  0.420017  0.252074  0.902073  1
  F  F13  1  0.430987  0.749273  0.374506  1
  F  F14  1  0.089555  0.753268  0.152587  1
  F  F15  1  0.073283  0.729654  0.588613  1
