# generated using pymatgen
data_LiTi2Ni(PO5)2
_symmetry_space_group_name_H-M   'P 1'
_cell_length_a   6.51576839
_cell_length_b   7.42063341
_cell_length_c   7.40528900
_cell_angle_alpha   90.00000000
_cell_angle_beta   89.98172625
_cell_angle_gamma   90.00000000
_symmetry_Int_Tables_number   1
_chemical_formula_structural   LiTi2Ni(PO5)2
_chemical_formula_sum   'Li2 Ti4 Ni2 P4 O20'
_cell_volume   358.05406258
_cell_formula_units_Z   2
loop_
 _symmetry_equiv_pos_site_id
 _symmetry_equiv_pos_as_xyz
  1  'x, y, z'
loop_
 _atom_site_type_symbol
 _atom_site_label
 _atom_site_symmetry_multiplicity
 _atom_site_fract_x
 _atom_site_fract_y
 _atom_site_fract_z
 _atom_site_occupancy
  Li  Li0  1  0.000000  0.500000  0.500000  1
  Li  Li1  1  0.000000  0.000000  0.000000  1
  Ti  Ti2  1  0.245814  0.782210  0.661095  1
  Ti  Ti3  1  0.245814  0.717790  0.161095  1
  Ti  Ti4  1  0.754186  0.282210  0.838905  1
  Ti  Ti5  1  0.754186  0.217790  0.338905  1
  Ni  Ni6  1  0.500000  0.500000  0.500000  1
  Ni  Ni7  1  0.500000  0.000000  0.000000  1
  P  P8  1  0.250513  0.368790  0.874418  1
  P  P9  1  0.250513  0.131210  0.374418  1
  P  P10  1  0.749487  0.868790  0.625582  1
  P  P11  1  0.749487  0.631210  0.125582  1
  O  O12  1  0.056946  0.248171  0.869350  1
  O  O13  1  0.056946  0.251829  0.369350  1
  O  O14  1  0.259903  0.847559  0.896608  1
  O  O15  1  0.250795  0.015986  0.545935  1
  O  O16  1  0.259903  0.652441  0.396608  1
  O  O17  1  0.250795  0.484014  0.045935  1
  O  O18  1  0.260490  0.491499  0.703069  1
  O  O19  1  0.260490  0.008501  0.203069  1
  O  O20  1  0.439976  0.241823  0.873038  1
  O  O21  1  0.439976  0.258177  0.373038  1
  O  O22  1  0.560024  0.741823  0.626962  1
  O  O23  1  0.560024  0.758177  0.126962  1
  O  O24  1  0.739510  0.991499  0.796931  1
  O  O25  1  0.739510  0.508501  0.296931  1
  O  O26  1  0.749205  0.515986  0.954065  1
  O  O27  1  0.740097  0.347559  0.603392  1
  O  O28  1  0.749205  0.984014  0.454065  1
  O  O29  1  0.740097  0.152441  0.103392  1
  O  O30  1  0.943054  0.748171  0.630650  1
  O  O31  1  0.943054  0.751829  0.130650  1
