# generated using pymatgen
data_Mn5FeO12
_symmetry_space_group_name_H-M   'P 1'
_cell_length_a   5.86088668
_cell_length_b   5.86088668
_cell_length_c   13.17078752
_cell_angle_alpha   103.33977799
_cell_angle_beta   103.33977799
_cell_angle_gamma   90.04103983
_symmetry_Int_Tables_number   1
_chemical_formula_structural   Mn5FeO12
_chemical_formula_sum   'Mn10 Fe2 O24'
_cell_volume   427.63643965
_cell_formula_units_Z   2
loop_
 _symmetry_equiv_pos_site_id
 _symmetry_equiv_pos_as_xyz
  1  'x, y, z'
loop_
 _atom_site_type_symbol
 _atom_site_label
 _atom_site_symmetry_multiplicity
 _atom_site_fract_x
 _atom_site_fract_y
 _atom_site_fract_z
 _atom_site_occupancy
  Mn  Mn0  1  0.000000  0.500000  0.000000  1
  Mn  Mn1  1  0.332851  0.333218  0.167038  1
  Mn  Mn2  1  0.333059  0.833410  0.167142  1
  Mn  Mn3  1  0.666590  0.166941  0.332858  1
  Mn  Mn4  1  0.166782  0.167149  0.332962  1
  Mn  Mn5  1  0.000000  0.500000  0.500000  1
  Mn  Mn6  1  0.333410  0.833059  0.667142  1
  Mn  Mn7  1  0.833218  0.832851  0.667038  1
  Mn  Mn8  1  0.667149  0.666782  0.832962  1
  Mn  Mn9  1  0.666941  0.166590  0.832858  1
  Fe  Fe10  1  0.500000  0.500000  0.000000  1
  Fe  Fe11  1  0.000000  0.000000  0.500000  1
  O  O12  1  0.247631  0.282462  0.011599  1
  O  O13  1  0.249625  0.727321  0.011412  1
  O  O14  1  0.546214  0.580021  0.159855  1
  O  O15  1  0.109845  0.578383  0.156128  1
  O  O16  1  0.557210  0.088288  0.177460  1
  O  O17  1  0.120476  0.087995  0.177208  1
  O  O18  1  0.412005  0.379524  0.322792  1
  O  O19  1  0.411712  0.942790  0.322540  1
  O  O20  1  0.919979  0.953786  0.340145  1
  O  O21  1  0.921617  0.390155  0.343872  1
  O  O22  1  0.217538  0.252369  0.488401  1
  O  O23  1  0.772679  0.250375  0.488588  1
  O  O24  1  0.227321  0.749625  0.511412  1
  O  O25  1  0.782462  0.747631  0.511599  1
  O  O26  1  0.078383  0.609845  0.656128  1
  O  O27  1  0.080021  0.046214  0.659855  1
  O  O28  1  0.587995  0.620476  0.677208  1
  O  O29  1  0.588288  0.057210  0.677460  1
  O  O30  1  0.879524  0.912005  0.822792  1
  O  O31  1  0.442790  0.911712  0.822540  1
  O  O32  1  0.453786  0.419979  0.840145  1
  O  O33  1  0.890155  0.421617  0.843872  1
  O  O34  1  0.752369  0.717538  0.988401  1
  O  O35  1  0.750375  0.272679  0.988588  1
