# generated using pymatgen
data_LiSn2P4H3O16
_symmetry_space_group_name_H-M   'P 1'
_cell_length_a   4.96316177
_cell_length_b   8.17948581
_cell_length_c   7.57202436
_cell_angle_alpha   90.02128330
_cell_angle_beta   103.96779840
_cell_angle_gamma   88.76072452
_symmetry_Int_Tables_number   1
_chemical_formula_structural   LiSn2P4H3O16
_chemical_formula_sum   'Li1 Sn2 P4 H3 O16'
_cell_volume   298.23205314
_cell_formula_units_Z   1
loop_
 _symmetry_equiv_pos_site_id
 _symmetry_equiv_pos_as_xyz
  1  'x, y, z'
loop_
 _atom_site_type_symbol
 _atom_site_label
 _atom_site_symmetry_multiplicity
 _atom_site_fract_x
 _atom_site_fract_y
 _atom_site_fract_z
 _atom_site_occupancy
  Li  Li0  1  0.421161  0.885073  0.865439  1
  Sn  Sn1  1  0.499863  0.497658  0.001845  1
  Sn  Sn2  1  0.987784  0.004161  0.491272  1
  P  P3  1  0.122090  0.344027  0.256841  1
  P  P4  1  0.360875  0.852034  0.231459  1
  P  P5  1  0.630247  0.149793  0.768503  1
  P  P6  1  0.877132  0.661367  0.737577  1
  H  H7  1  0.002217  0.995391  0.001757  1
  H  H8  1  0.441385  0.369856  0.506647  1
  H  H9  1  0.537148  0.594954  0.503149  1
  O  O10  1  0.113926  0.547032  0.832749  1
  O  O11  1  0.987158  0.829326  0.699809  1
  O  O12  1  0.155801  0.828469  0.355459  1
  O  O13  1  0.272192  0.429927  0.442868  1
  O  O14  1  0.369827  0.051905  0.669552  1
  O  O15  1  0.550888  0.326265  0.813080  1
  O  O16  1  0.225291  0.942017  0.051136  1
  O  O17  1  0.332044  0.324745  0.136292  1
  O  O18  1  0.653833  0.680975  0.852628  1
  O  O19  1  0.756446  0.045781  0.936792  1
  O  O20  1  0.453784  0.679908  0.182366  1
  O  O21  1  0.605021  0.951730  0.337825  1
  O  O22  1  0.739729  0.580253  0.550762  1
  O  O23  1  0.819494  0.174347  0.633844  1
  O  O24  1  0.030655  0.175153  0.300505  1
  O  O25  1  0.884237  0.462404  0.171272  1
