# generated using pymatgen
data_LiV4OF11
_symmetry_space_group_name_H-M   'P 1'
_cell_length_a   5.26605766
_cell_length_b   5.49829749
_cell_length_c   17.42365241
_cell_angle_alpha   91.71785285
_cell_angle_beta   98.49641357
_cell_angle_gamma   61.89819743
_symmetry_Int_Tables_number   1
_chemical_formula_structural   LiV4OF11
_chemical_formula_sum   'Li2 V8 O2 F22'
_cell_volume   439.67915603
_cell_formula_units_Z   2
loop_
 _symmetry_equiv_pos_site_id
 _symmetry_equiv_pos_as_xyz
  1  'x, y, z'
loop_
 _atom_site_type_symbol
 _atom_site_label
 _atom_site_symmetry_multiplicity
 _atom_site_fract_x
 _atom_site_fract_y
 _atom_site_fract_z
 _atom_site_occupancy
  Li  Li0  1  0.552491  0.794606  0.928707  1
  Li  Li1  1  0.299800  0.927258  0.551397  1
  V  V2  1  0.016606  0.980272  0.998194  1
  V  V3  1  0.249124  0.405572  0.878902  1
  V  V4  1  0.245760  0.871515  0.372558  1
  V  V5  1  0.499651  0.245065  0.248763  1
  V  V6  1  0.502414  0.756581  0.749747  1
  V  V7  1  0.750625  0.142298  0.621104  1
  V  V8  1  0.975088  0.497914  0.500987  1
  V  V9  1  0.748408  0.616059  0.124698  1
  O  O10  1  0.242231  0.692693  0.938071  1
  O  O11  1  0.846859  0.276534  0.540950  1
  F  F12  1  0.210153  0.193003  0.961678  1
  F  F13  1  0.286807  0.062443  0.815621  1
  F  F14  1  0.236522  0.168228  0.440612  1
  F  F15  1  0.320181  0.034239  0.284126  1
  F  F16  1  0.315014  0.353249  0.586798  1
  F  F17  1  0.313508  0.551974  0.784147  1
  F  F18  1  0.174163  0.724117  0.468693  1
  F  F19  1  0.199780  0.897992  0.653878  1
  F  F20  1  0.172078  0.415061  0.160275  1
  F  F21  1  0.683999  0.155749  0.913161  1
  F  F22  1  0.272082  0.553660  0.313700  1
  F  F23  1  0.742330  0.430684  0.693554  1
  F  F24  1  0.325836  0.830180  0.091439  1
  F  F25  1  0.825129  0.081584  0.338133  1
  F  F26  1  0.798101  0.606289  0.846531  1
  F  F27  1  0.669530  0.663705  0.408989  1
  F  F28  1  0.678407  0.456060  0.215555  1
  F  F29  1  0.676483  0.965430  0.712259  1
  F  F30  1  0.719096  0.831379  0.562602  1
  F  F31  1  0.779687  0.302801  0.062902  1
  F  F32  1  0.725998  0.933391  0.186051  1
  F  F33  1  0.800538  0.775175  0.028868  1
