# generated using pymatgen
data_Li5V(CO3)4
_symmetry_space_group_name_H-M   'P 1'
_cell_length_a   10.97231194
_cell_length_b   9.73911041
_cell_length_c   8.42108225
_cell_angle_alpha   90.00000000
_cell_angle_beta   91.14090384
_cell_angle_gamma   90.00000000
_symmetry_Int_Tables_number   1
_chemical_formula_structural   Li5V(CO3)4
_chemical_formula_sum   'Li20 V4 C16 O48'
_cell_volume   899.70314432
_cell_formula_units_Z   4
loop_
 _symmetry_equiv_pos_site_id
 _symmetry_equiv_pos_as_xyz
  1  'x, y, z'
loop_
 _atom_site_type_symbol
 _atom_site_label
 _atom_site_symmetry_multiplicity
 _atom_site_fract_x
 _atom_site_fract_y
 _atom_site_fract_z
 _atom_site_occupancy
  Li  Li0  1  0.054544  0.636782  0.562505  1
  Li  Li1  1  0.054544  0.863218  0.062505  1
  Li  Li2  1  0.122792  0.141775  0.583291  1
  Li  Li3  1  0.122792  0.358225  0.083291  1
  Li  Li4  1  0.209821  0.897195  0.694555  1
  Li  Li5  1  0.209821  0.602805  0.194555  1
  Li  Li6  1  0.329205  0.663740  0.529178  1
  Li  Li7  1  0.329205  0.836260  0.029178  1
  Li  Li8  1  0.413493  0.108026  0.580584  1
  Li  Li9  1  0.413493  0.391973  0.080584  1
  Li  Li10  1  0.586507  0.608027  0.919416  1
  Li  Li11  1  0.586507  0.891973  0.419416  1
  Li  Li12  1  0.670795  0.163740  0.970822  1
  Li  Li13  1  0.670795  0.336260  0.470822  1
  Li  Li14  1  0.790179  0.397195  0.805445  1
  Li  Li15  1  0.790179  0.102805  0.305445  1
  Li  Li16  1  0.877208  0.641775  0.916709  1
  Li  Li17  1  0.877208  0.858225  0.416710  1
  Li  Li18  1  0.945456  0.136782  0.937495  1
  Li  Li19  1  0.945456  0.363218  0.437495  1
  V  V20  1  0.285486  0.407853  0.728934  1
  V  V21  1  0.285486  0.092147  0.228934  1
  V  V22  1  0.714514  0.907853  0.771066  1
  V  V23  1  0.714514  0.592147  0.271066  1
  C  C24  1  0.022056  0.388191  0.754662  1
  C  C25  1  0.022056  0.111809  0.254662  1
  C  C26  1  0.206663  0.634946  0.849360  1
  C  C27  1  0.206663  0.865054  0.349360  1
  C  C28  1  0.289768  0.131330  0.875181  1
  C  C29  1  0.289768  0.368670  0.375181  1
  C  C30  1  0.489697  0.858842  0.715204  1
  C  C31  1  0.489697  0.641158  0.215204  1
  C  C32  1  0.510303  0.358842  0.784796  1
  C  C33  1  0.510303  0.141158  0.284796  1
  C  C34  1  0.710232  0.631330  0.624819  1
  C  C35  1  0.710232  0.868670  0.124819  1
  C  C36  1  0.793337  0.134946  0.650640  1
  C  C37  1  0.793337  0.365054  0.150640  1
  C  C38  1  0.977944  0.888191  0.745338  1
  C  C39  1  0.977944  0.611809  0.245338  1
  O  O40  1  0.008390  0.826259  0.617398  1
  O  O41  1  0.008390  0.673741  0.117398  1
  O  O42  1  0.032827  0.999430  0.790651  1
  O  O43  1  0.032827  0.500570  0.290651  1
  O  O44  1  0.108303  0.337011  0.663241  1
  O  O45  1  0.108303  0.162989  0.163241  1
  O  O46  1  0.195957  0.757896  0.896564  1
  O  O47  1  0.195957  0.742104  0.396564  1
  O  O48  1  0.210937  0.526377  0.939008  1
  O  O49  1  0.210937  0.973623  0.439008  1
  O  O50  1  0.218120  0.606918  0.697266  1
  O  O51  1  0.218120  0.893082  0.197266  1
  O  O52  1  0.275744  0.087761  0.732587  1
  O  O53  1  0.285848  0.262162  0.908698  1
  O  O54  1  0.275744  0.412239  0.232587  1
  O  O55  1  0.285848  0.237838  0.408698  1
  O  O56  1  0.309176  0.044726  0.990105  1
  O  O57  1  0.309176  0.455274  0.490105  1
  O  O58  1  0.388950  0.819132  0.655604  1
  O  O59  1  0.388950  0.680868  0.155604  1
  O  O60  1  0.455165  0.471694  0.833927  1
  O  O61  1  0.455165  0.028306  0.333927  1
  O  O62  1  0.448837  0.292254  0.675715  1
  O  O63  1  0.448837  0.207746  0.175715  1
  O  O64  1  0.551163  0.792254  0.824285  1
  O  O65  1  0.551163  0.707746  0.324285  1
  O  O66  1  0.544835  0.971694  0.666073  1
  O  O67  1  0.544835  0.528306  0.166073  1
  O  O68  1  0.611050  0.319132  0.844396  1
  O  O69  1  0.611050  0.180868  0.344396  1
  O  O70  1  0.690824  0.544726  0.509895  1
  O  O71  1  0.690824  0.955274  0.009895  1
  O  O72  1  0.714152  0.762162  0.591302  1
  O  O73  1  0.724256  0.587761  0.767413  1
  O  O74  1  0.714152  0.737838  0.091302  1
  O  O75  1  0.724256  0.912239  0.267413  1
  O  O76  1  0.781880  0.106918  0.802734  1
  O  O77  1  0.781880  0.393082  0.302734  1
  O  O78  1  0.789063  0.026377  0.560992  1
  O  O79  1  0.789063  0.473623  0.060992  1
  O  O80  1  0.804043  0.257896  0.603436  1
  O  O81  1  0.804043  0.242104  0.103436  1
  O  O82  1  0.891697  0.837011  0.836759  1
  O  O83  1  0.891697  0.662989  0.336759  1
  O  O84  1  0.967173  0.499430  0.709349  1
  O  O85  1  0.967173  0.000570  0.209349  1
  O  O86  1  0.991610  0.326259  0.882602  1
  O  O87  1  0.991610  0.173741  0.382602  1
