# generated using pymatgen
data_LiFe2C2O7
_symmetry_space_group_name_H-M   'P 1'
_cell_length_a   10.52515642
_cell_length_b   5.98978418
_cell_length_c   9.33102009
_cell_angle_alpha   90.00000000
_cell_angle_beta   63.14115274
_cell_angle_gamma   90.00000000
_symmetry_Int_Tables_number   1
_chemical_formula_structural   LiFe2C2O7
_chemical_formula_sum   'Li4 Fe8 C8 O28'
_cell_volume   524.79928421
_cell_formula_units_Z   4
loop_
 _symmetry_equiv_pos_site_id
 _symmetry_equiv_pos_as_xyz
  1  'x, y, z'
loop_
 _atom_site_type_symbol
 _atom_site_label
 _atom_site_symmetry_multiplicity
 _atom_site_fract_x
 _atom_site_fract_y
 _atom_site_fract_z
 _atom_site_occupancy
  Li  Li0  1  0.492785  0.940437  0.766382  1
  Li  Li1  1  0.507215  0.440437  0.733618  1
  Li  Li2  1  0.492785  0.559563  0.266382  1
  Li  Li3  1  0.507215  0.059563  0.233618  1
  Fe  Fe4  1  0.161858  0.115160  0.934328  1
  Fe  Fe5  1  0.988287  0.080774  0.720960  1
  Fe  Fe6  1  0.161858  0.384840  0.434328  1
  Fe  Fe7  1  0.988287  0.419226  0.220960  1
  Fe  Fe8  1  0.011713  0.580774  0.779040  1
  Fe  Fe9  1  0.838142  0.615160  0.565672  1
  Fe  Fe10  1  0.011713  0.919226  0.279040  1
  Fe  Fe11  1  0.838142  0.884840  0.065672  1
  C  C12  1  0.225694  0.656574  0.931796  1
  C  C13  1  0.332572  0.239690  0.594888  1
  C  C14  1  0.225694  0.843426  0.431796  1
  C  C15  1  0.667428  0.739690  0.905112  1
  C  C16  1  0.332572  0.260310  0.094888  1
  C  C17  1  0.774306  0.156574  0.568204  1
  C  C18  1  0.667428  0.760310  0.405112  1
  C  C19  1  0.774306  0.343426  0.068204  1
  O  O20  1  0.021430  0.876539  0.872814  1
  O  O21  1  0.139977  0.483489  0.972397  1
  O  O22  1  0.342387  0.194856  0.956692  1
  O  O23  1  0.200014  0.210824  0.713586  1
  O  O24  1  0.339000  0.673049  0.801662  1
  O  O25  1  0.021430  0.623461  0.372814  1
  O  O26  1  0.139977  0.016511  0.472397  1
  O  O27  1  0.182763  0.675945  0.535393  1
  O  O28  1  0.561580  0.701952  0.880898  1
  O  O29  1  0.438420  0.201952  0.619102  1
  O  O30  1  0.342387  0.305144  0.456692  1
  O  O31  1  0.817237  0.175945  0.964607  1
  O  O32  1  0.200014  0.289176  0.213586  1
  O  O33  1  0.661000  0.173049  0.698338  1
  O  O34  1  0.339000  0.826951  0.301662  1
  O  O35  1  0.799986  0.710824  0.786414  1
  O  O36  1  0.182763  0.824055  0.035393  1
  O  O37  1  0.657613  0.694856  0.543308  1
  O  O38  1  0.561580  0.798048  0.380898  1
  O  O39  1  0.438420  0.298048  0.119102  1
  O  O40  1  0.817237  0.324055  0.464607  1
  O  O41  1  0.860023  0.983489  0.527603  1
  O  O42  1  0.978570  0.376539  0.627186  1
  O  O43  1  0.661000  0.326951  0.198338  1
  O  O44  1  0.799986  0.789176  0.286414  1
  O  O45  1  0.657613  0.805144  0.043308  1
  O  O46  1  0.860023  0.516511  0.027603  1
  O  O47  1  0.978570  0.123461  0.127186  1
