# generated using pymatgen
data_LiFe2OF3
_symmetry_space_group_name_H-M   'P 1'
_cell_length_a   5.18074362
_cell_length_b   10.48246398
_cell_length_c   6.24199125
_cell_angle_alpha   90.00547915
_cell_angle_beta   90.00136456
_cell_angle_gamma   90.00621487
_symmetry_Int_Tables_number   1
_chemical_formula_structural   LiFe2OF3
_chemical_formula_sum   'Li4 Fe8 O4 F12'
_cell_volume   338.98355547
_cell_formula_units_Z   4
loop_
 _symmetry_equiv_pos_site_id
 _symmetry_equiv_pos_as_xyz
  1  'x, y, z'
loop_
 _atom_site_type_symbol
 _atom_site_label
 _atom_site_symmetry_multiplicity
 _atom_site_fract_x
 _atom_site_fract_y
 _atom_site_fract_z
 _atom_site_occupancy
  Li  Li0  1  0.022356  0.591893  0.250052  1
  Li  Li1  1  0.477644  0.091832  0.249991  1
  Li  Li2  1  0.522394  0.908128  0.750012  1
  Li  Li3  1  0.977681  0.408160  0.749951  1
  Fe  Fe4  1  0.000115  0.999978  -0.000154  1
  Fe  Fe5  1  0.000101  0.999983  0.500121  1
  Fe  Fe6  1  0.000361  0.740589  0.750092  1
  Fe  Fe7  1  0.499614  0.240600  0.750035  1
  Fe  Fe8  1  0.499806  0.499935  0.500177  1
  Fe  Fe9  1  0.499874  0.499974  -0.000178  1
  Fe  Fe10  1  0.500371  0.759430  0.249986  1
  Fe  Fe11  1  0.999670  0.259384  0.249922  1
  O  O12  1  0.155813  0.913971  0.750022  1
  O  O13  1  0.344228  0.413999  0.749985  1
  O  O14  1  0.655812  0.586035  0.250014  1
  O  O15  1  0.844200  0.086014  0.249979  1
  F  F16  1  0.204601  0.427341  0.250046  1
  F  F17  1  0.224410  0.666424  0.016901  1
  F  F18  1  0.224304  0.666427  0.483141  1
  F  F19  1  0.275552  0.166426  0.016824  1
  F  F20  1  0.275736  0.166365  0.483103  1
  F  F21  1  0.295298  0.927313  0.250080  1
  F  F22  1  0.704638  0.072672  0.749914  1
  F  F23  1  0.724475  0.833558  0.983183  1
  F  F24  1  0.724281  0.833633  0.516905  1
  F  F25  1  0.775681  0.333614  0.516852  1
  F  F26  1  0.775596  0.333622  0.983094  1
  F  F27  1  0.795390  0.572700  0.749950  1
