# generated using pymatgen
data_LiMn2(PO4)2
_symmetry_space_group_name_H-M   'P 1'
_cell_length_a   8.59087399
_cell_length_b   8.47626741
_cell_length_c   7.32672221
_cell_angle_alpha   87.41360274
_cell_angle_beta   84.68124295
_cell_angle_gamma   60.26588326
_symmetry_Int_Tables_number   1
_chemical_formula_structural   LiMn2(PO4)2
_chemical_formula_sum   'Li3 Mn6 P6 O24'
_cell_volume   461.28099107
_cell_formula_units_Z   3
loop_
 _symmetry_equiv_pos_site_id
 _symmetry_equiv_pos_as_xyz
  1  'x, y, z'
loop_
 _atom_site_type_symbol
 _atom_site_label
 _atom_site_symmetry_multiplicity
 _atom_site_fract_x
 _atom_site_fract_y
 _atom_site_fract_z
 _atom_site_occupancy
  Li  Li0  1  0.022408  0.665195  0.934920  1
  Li  Li1  1  0.663662  0.306099  0.912356  1
  Li  Li2  1  0.981743  0.347179  0.406801  1
  Mn  Mn3  1  0.026554  0.981113  0.256053  1
  Mn  Mn4  1  0.009717  0.985727  0.720961  1
  Mn  Mn5  1  0.349709  0.326236  0.204775  1
  Mn  Mn6  1  0.328389  0.326797  0.780623  1
  Mn  Mn7  1  0.645580  0.687227  0.287287  1
  Mn  Mn8  1  0.670536  0.656404  0.696167  1
  P  P9  1  0.319852  0.036017  0.498307  1
  P  P10  1  0.039578  0.645166  0.501799  1
  P  P11  1  0.356459  0.680183  0.001843  1
  P  P12  1  0.652721  0.326172  0.490459  1
  P  P13  1  0.951804  0.357372  0.010550  1
  P  P14  1  0.676466  0.958774  0.981859  1
  O  O15  1  0.030796  0.153971  0.046067  1
  O  O16  1  0.099865  0.411247  0.978445  1
  O  O17  1  0.259521  0.180129  0.337940  1
  O  O18  1  0.288417  0.132843  0.678789  1
  O  O19  1  0.143122  0.588780  0.674528  1
  O  O20  1  0.157024  0.547740  0.324670  1
  O  O21  1  0.481668  0.122699  0.012600  1
  O  O22  1  0.149631  0.796278  0.994785  1
  O  O23  1  0.405351  0.472244  0.008462  1
  O  O24  1  0.196156  0.952982  0.498763  1
  O  O25  1  0.573250  0.293988  0.328046  1
  O  O26  1  0.573705  0.296791  0.676390  1
  O  O27  1  0.418710  0.729679  0.166901  1
  O  O28  1  0.444279  0.708595  0.817905  1
  O  O29  1  0.806373  0.035491  0.939039  1
  O  O30  1  0.611700  0.534006  0.493336  1
  O  O31  1  0.860794  0.205237  0.480641  1
  O  O32  1  0.520784  0.885140  0.466497  1
  O  O33  1  0.825091  0.414190  0.852607  1
  O  O34  1  0.836694  0.459198  0.190132  1
  O  O35  1  0.736934  0.834651  0.153064  1
  O  O36  1  0.705868  0.835376  0.817837  1
  O  O37  1  0.886057  0.591075  0.521838  1
  O  O38  1  0.955685  0.851227  0.477133  1
