# generated using pymatgen
data_Li3Mn2(SiO4)2
_symmetry_space_group_name_H-M   'P 1'
_cell_length_a   6.65329301
_cell_length_b   5.43371773
_cell_length_c   4.92467752
_cell_angle_alpha   89.19393020
_cell_angle_beta   89.65865984
_cell_angle_gamma   88.90583932
_symmetry_Int_Tables_number   1
_chemical_formula_structural   Li3Mn2(SiO4)2
_chemical_formula_sum   'Li3 Mn2 Si2 O8'
_cell_volume   177.98455362
_cell_formula_units_Z   1
loop_
 _symmetry_equiv_pos_site_id
 _symmetry_equiv_pos_as_xyz
  1  'x, y, z'
loop_
 _atom_site_type_symbol
 _atom_site_label
 _atom_site_symmetry_multiplicity
 _atom_site_fract_x
 _atom_site_fract_y
 _atom_site_fract_z
 _atom_site_occupancy
  Li  Li0  1  0.999412  0.813952  0.500127  1
  Li  Li1  1  0.499771  0.188734  0.999982  1
  Li  Li2  1  0.758138  0.657713  0.994988  1
  Mn  Mn3  1  0.020027  0.178022  0.998244  1
  Mn  Mn4  1  0.498297  0.829749  0.487857  1
  Si  Si5  1  0.250703  0.673451  0.011248  1
  Si  Si6  1  0.754316  0.322466  0.503007  1
  O  O7  1  0.040911  0.810384  0.899076  1
  O  O8  1  0.248613  0.707073  0.342026  1
  O  O9  1  0.258402  0.383967  0.931264  1
  O  O10  1  0.458521  0.815184  0.899166  1
  O  O11  1  0.558941  0.176662  0.396180  1
  O  O12  1  0.757736  0.318517  0.840181  1
  O  O13  1  0.750992  0.613599  0.398050  1
  O  O14  1  0.957554  0.172459  0.395066  1
