# generated using pymatgen
data_Li3VOF5
_symmetry_space_group_name_H-M   'P 1'
_cell_length_a   5.07355586
_cell_length_b   5.28982479
_cell_length_c   7.69077472
_cell_angle_alpha   90.00000000
_cell_angle_beta   90.35477696
_cell_angle_gamma   90.00000000
_symmetry_Int_Tables_number   1
_chemical_formula_structural   Li3VOF5
_chemical_formula_sum   'Li6 V2 O2 F10'
_cell_volume   206.40275909
_cell_formula_units_Z   2
loop_
 _symmetry_equiv_pos_site_id
 _symmetry_equiv_pos_as_xyz
  1  'x, y, z'
loop_
 _atom_site_type_symbol
 _atom_site_label
 _atom_site_symmetry_multiplicity
 _atom_site_fract_x
 _atom_site_fract_y
 _atom_site_fract_z
 _atom_site_occupancy
  Li  Li0  1  0.995890  0.995398  0.500924  1
  Li  Li1  1  0.005018  0.545893  0.751596  1
  Li  Li2  1  0.495890  0.504602  0.000924  1
  Li  Li3  1  0.488094  0.034498  0.761857  1
  Li  Li4  1  0.505018  0.954107  0.251596  1
  Li  Li5  1  0.988094  0.465502  0.261857  1
  V  V6  1  0.975238  0.014332  0.004540  1
  V  V7  1  0.475238  0.485668  0.504540  1
  O  O8  1  0.200115  0.331022  0.558328  1
  O  O9  1  0.700115  0.168978  0.058328  1
  F  F10  1  0.144854  0.067844  0.233384  1
  F  F11  1  0.176157  0.304679  0.917680  1
  F  F12  1  0.307416  0.821686  0.934717  1
  F  F13  1  0.342359  0.819579  0.573429  1
  F  F14  1  0.364859  0.574787  0.263543  1
  F  F15  1  0.644854  0.432156  0.733384  1
  F  F16  1  0.676157  0.195321  0.417680  1
  F  F17  1  0.807416  0.678314  0.434717  1
  F  F18  1  0.842359  0.680421  0.073429  1
  F  F19  1  0.864859  0.925213  0.763543  1
