# generated using pymatgen
data_Fe(SO4)2
_symmetry_space_group_name_H-M   'P 1'
_cell_length_a   8.96725081
_cell_length_b   8.96725107
_cell_length_c   8.96725069
_cell_angle_alpha   56.21308955
_cell_angle_beta   56.21308560
_cell_angle_gamma   56.21308848
_symmetry_Int_Tables_number   1
_chemical_formula_structural   Fe(SO4)2
_chemical_formula_sum   'Fe3 S6 O24'
_cell_volume   465.18548289
_cell_formula_units_Z   3
loop_
 _symmetry_equiv_pos_site_id
 _symmetry_equiv_pos_as_xyz
  1  'x, y, z'
loop_
 _atom_site_type_symbol
 _atom_site_label
 _atom_site_symmetry_multiplicity
 _atom_site_fract_x
 _atom_site_fract_y
 _atom_site_fract_z
 _atom_site_occupancy
  Fe  Fe0  1  0.356151  0.356151  0.356151  1
  Fe  Fe1  1  0.643498  0.643498  0.643498  1
  Fe  Fe2  1  0.851055  0.851055  0.851055  1
  S  S3  1  0.039260  0.743957  0.467125  1
  S  S4  1  0.467125  0.039260  0.743957  1
  S  S5  1  0.743957  0.467125  0.039260  1
  S  S6  1  0.249375  0.539281  0.960366  1
  S  S7  1  0.539281  0.960366  0.249375  1
  S  S8  1  0.960366  0.249375  0.539281  1
  O  O9  1  0.114177  0.291170  0.513328  1
  O  O10  1  0.291170  0.513328  0.114177  1
  O  O11  1  0.004989  0.943198  0.339017  1
  O  O12  1  0.513328  0.114177  0.291170  1
  O  O13  1  0.023667  0.718662  0.655064  1
  O  O14  1  0.232137  0.610740  0.387991  1
  O  O15  1  0.387991  0.232137  0.610740  1
  O  O16  1  0.339017  0.004989  0.943198  1
  O  O17  1  0.610740  0.387991  0.232137  1
  O  O18  1  0.047644  0.679043  0.980528  1
  O  O19  1  0.273868  0.359135  0.970651  1
  O  O20  1  0.359135  0.970651  0.273868  1
  O  O21  1  0.655064  0.023667  0.718662  1
  O  O22  1  0.718662  0.655064  0.023667  1
  O  O23  1  0.943198  0.339017  0.004989  1
  O  O24  1  0.380514  0.628922  0.768937  1
  O  O25  1  0.679043  0.980528  0.047644  1
  O  O26  1  0.628922  0.768937  0.380514  1
  O  O27  1  0.768937  0.380514  0.628922  1
  O  O28  1  0.970651  0.273868  0.359135  1
  O  O29  1  0.504616  0.894319  0.679976  1
  O  O30  1  0.980528  0.047644  0.679043  1
  O  O31  1  0.679976  0.504616  0.894319  1
  O  O32  1  0.894319  0.679976  0.504616  1
