# generated using pymatgen
data_LiV(TeO4)3
_symmetry_space_group_name_H-M   'P 1'
_cell_length_a   5.20085420
_cell_length_b   4.92522754
_cell_length_c   8.42188297
_cell_angle_alpha   90.00000000
_cell_angle_beta   90.00000000
_cell_angle_gamma   92.58121140
_symmetry_Int_Tables_number   1
_chemical_formula_structural   LiV(TeO4)3
_chemical_formula_sum   'Li1 V1 Te3 O12'
_cell_volume   215.51093853
_cell_formula_units_Z   1
loop_
 _symmetry_equiv_pos_site_id
 _symmetry_equiv_pos_as_xyz
  1  'x, y, z'
loop_
 _atom_site_type_symbol
 _atom_site_label
 _atom_site_symmetry_multiplicity
 _atom_site_fract_x
 _atom_site_fract_y
 _atom_site_fract_z
 _atom_site_occupancy
  Li  Li0  1  0.500000  0.500000  0.192969  1
  V  V1  1  0.000000  0.000000  0.097269  1
  Te  Te2  1  0.000000  0.500000  0.412641  1
  Te  Te3  1  0.500000  0.500000  0.602520  1
  Te  Te4  1  0.500000  0.000000  0.918287  1
  O  O5  1  0.118865  0.257607  0.250899  1
  O  O6  1  0.175462  0.286700  0.579729  1
  O  O7  1  0.190574  0.198354  0.940713  1
  O  O8  1  0.331483  0.705533  0.426071  1
  O  O9  1  0.306924  0.787550  0.080183  1
  O  O10  1  0.360985  0.746988  0.755386  1
  O  O11  1  0.639015  0.253012  0.755386  1
  O  O12  1  0.693076  0.212450  0.080183  1
  O  O13  1  0.668517  0.294467  0.426071  1
  O  O14  1  0.809426  0.801646  0.940713  1
  O  O15  1  0.824538  0.713300  0.579729  1
  O  O16  1  0.881135  0.742393  0.250899  1
