# generated using pymatgen
data_FePO4F
_symmetry_space_group_name_H-M   'P 1'
_cell_length_a   12.80399720
_cell_length_b   6.33096604
_cell_length_c   10.85188176
_cell_angle_alpha   90.00000000
_cell_angle_beta   90.00000000
_cell_angle_gamma   90.00000000
_symmetry_Int_Tables_number   1
_chemical_formula_structural   FePO4F
_chemical_formula_sum   'Fe8 P8 O32 F8'
_cell_volume   879.67167384
_cell_formula_units_Z   8
loop_
 _symmetry_equiv_pos_site_id
 _symmetry_equiv_pos_as_xyz
  1  'x, y, z'
loop_
 _atom_site_type_symbol
 _atom_site_label
 _atom_site_symmetry_multiplicity
 _atom_site_fract_x
 _atom_site_fract_y
 _atom_site_fract_z
 _atom_site_occupancy
  Fe  Fe0  1  0.112200  0.001176  0.498155  1
  Fe  Fe1  1  0.249471  0.250426  0.748956  1
  Fe  Fe2  1  0.250529  0.750426  0.248956  1
  Fe  Fe3  1  0.387800  0.501176  0.998155  1
  Fe  Fe4  1  0.612200  0.498824  0.498155  1
  Fe  Fe5  1  0.749471  0.249574  0.748956  1
  Fe  Fe6  1  0.750529  0.749574  0.248956  1
  Fe  Fe7  1  0.887800  0.998824  0.998155  1
  P  P8  1  0.000475  0.834627  0.248497  1
  P  P9  1  0.186061  0.500769  0.498445  1
  P  P10  1  0.313939  0.000769  0.998445  1
  P  P11  1  0.499525  0.334627  0.748497  1
  P  P12  1  0.500475  0.665373  0.248497  1
  P  P13  1  0.686061  0.999231  0.498445  1
  P  P14  1  0.813939  0.499231  0.998445  1
  P  P15  1  0.999525  0.165373  0.748497  1
  O  O16  1  0.007478  0.022620  0.632787  1
  O  O17  1  0.008451  0.981216  0.362603  1
  O  O18  1  0.096619  0.307706  0.762801  1
  O  O19  1  0.097786  0.692028  0.235933  1
  O  O20  1  0.113340  0.311069  0.472501  1
  O  O21  1  0.113735  0.691193  0.523671  1
  O  O22  1  0.242620  0.959034  0.111151  1
  O  O23  1  0.241661  0.041117  0.886512  1
  O  O24  1  0.258339  0.541117  0.386512  1
  O  O25  1  0.257380  0.459034  0.611151  1
  O  O26  1  0.386265  0.191193  0.023671  1
  O  O27  1  0.386660  0.811069  0.972501  1
  O  O28  1  0.402214  0.192028  0.735933  1
  O  O29  1  0.403381  0.807706  0.262801  1
  O  O30  1  0.491549  0.481216  0.862603  1
  O  O31  1  0.492522  0.522620  0.132787  1
  O  O32  1  0.507478  0.477380  0.632787  1
  O  O33  1  0.508451  0.518784  0.362603  1
  O  O34  1  0.596619  0.192294  0.762801  1
  O  O35  1  0.597786  0.807972  0.235933  1
  O  O36  1  0.613340  0.188931  0.472501  1
  O  O37  1  0.613735  0.808807  0.523671  1
  O  O38  1  0.742620  0.540966  0.111151  1
  O  O39  1  0.741661  0.458883  0.886512  1
  O  O40  1  0.758339  0.958883  0.386512  1
  O  O41  1  0.757380  0.040966  0.611151  1
  O  O42  1  0.886265  0.308807  0.023671  1
  O  O43  1  0.886660  0.688931  0.972501  1
  O  O44  1  0.902214  0.307972  0.735933  1
  O  O45  1  0.903381  0.692294  0.262801  1
  O  O46  1  0.991549  0.018784  0.862603  1
  O  O47  1  0.992522  0.977380  0.132787  1
  F  F48  1  0.224199  0.973640  0.371939  1
  F  F49  1  0.223122  0.028169  0.625530  1
  F  F50  1  0.276878  0.528169  0.125530  1
  F  F51  1  0.275801  0.473640  0.871939  1
  F  F52  1  0.724199  0.526360  0.371939  1
  F  F53  1  0.723122  0.471831  0.625530  1
  F  F54  1  0.776878  0.971831  0.125530  1
  F  F55  1  0.775801  0.026360  0.871939  1
