# generated using pymatgen
data_Li2Mn3(PO4)3
_symmetry_space_group_name_H-M   'P 1'
_cell_length_a   8.53395000
_cell_length_b   9.05413393
_cell_length_c   9.05413394
_cell_angle_alpha   59.15060204
_cell_angle_beta   58.51114207
_cell_angle_gamma   58.51114208
_symmetry_Int_Tables_number   1
_chemical_formula_structural   Li2Mn3(PO4)3
_chemical_formula_sum   'Li4 Mn6 P6 O24'
_cell_volume   480.22556034
_cell_formula_units_Z   2
loop_
 _symmetry_equiv_pos_site_id
 _symmetry_equiv_pos_as_xyz
  1  'x, y, z'
loop_
 _atom_site_type_symbol
 _atom_site_label
 _atom_site_symmetry_multiplicity
 _atom_site_fract_x
 _atom_site_fract_y
 _atom_site_fract_z
 _atom_site_occupancy
  Li  Li0  1  0.250000  0.855712  0.644288  1
  Li  Li1  1  0.750000  0.158770  0.341230  1
  Li  Li2  1  0.750964  0.746089  0.152090  1
  Li  Li3  1  0.749036  0.347910  0.753911  1
  Mn  Mn4  1  0.000576  0.997988  0.009751  1
  Mn  Mn5  1  0.059497  0.649654  0.644357  1
  Mn  Mn6  1  0.534191  0.152965  0.156349  1
  Mn  Mn7  1  0.499424  0.490249  0.502012  1
  Mn  Mn8  1  0.440503  0.855643  0.850346  1
  Mn  Mn9  1  0.965809  0.343651  0.347035  1
  P  P10  1  0.257345  0.249367  0.560153  1
  P  P11  1  0.242655  0.939847  0.250633  1
  P  P12  1  0.250000  0.559561  0.940439  1
  P  P13  1  0.750000  0.462655  0.037345  1
  P  P14  1  0.763016  0.044100  0.749198  1
  P  P15  1  0.736984  0.750802  0.455900  1
  O  O16  1  0.056192  0.097635  0.307149  1
  O  O17  1  0.061853  0.528405  0.094008  1
  O  O18  1  0.066047  0.303578  0.536976  1
  O  O19  1  0.244059  0.081748  0.747674  1
  O  O20  1  0.443808  0.192851  0.402365  1
  O  O21  1  0.269273  0.400852  0.582558  1
  O  O22  1  0.230727  0.917442  0.099148  1
  O  O23  1  0.255941  0.752326  0.418252  1
  O  O24  1  0.566364  0.613495  0.992675  1
  O  O25  1  0.274643  0.582732  0.745155  1
  O  O26  1  0.777778  0.268377  0.056551  1
  O  O27  1  0.590952  0.989780  0.813150  1
  O  O28  1  0.433953  0.963024  0.196422  1
  O  O29  1  0.225357  0.754845  0.917268  1
  O  O30  1  0.722222  0.443449  0.231623  1
  O  O31  1  0.438147  0.405992  0.971595  1
  O  O32  1  0.731428  0.239403  0.596532  1
  O  O33  1  0.772626  0.070975  0.902792  1
  O  O34  1  0.727374  0.597208  0.429025  1
  O  O35  1  0.539618  0.816666  0.600388  1
  O  O36  1  0.768572  0.903468  0.260597  1
  O  O37  1  0.909048  0.686850  0.510220  1
  O  O38  1  0.933636  0.507325  0.886505  1
  O  O39  1  0.960382  0.899612  0.683334  1
