# generated using pymatgen
data_Mn4(PO4)3
_symmetry_space_group_name_H-M   'P 1'
_cell_length_a   8.49052711
_cell_length_b   9.83717943
_cell_length_c   8.49052660
_cell_angle_alpha   64.44613476
_cell_angle_beta   60.02024327
_cell_angle_gamma   64.44613732
_symmetry_Int_Tables_number   1
_chemical_formula_structural   Mn4(PO4)3
_chemical_formula_sum   'Mn8 P6 O24'
_cell_volume   532.63050555
_cell_formula_units_Z   2
loop_
 _symmetry_equiv_pos_site_id
 _symmetry_equiv_pos_as_xyz
  1  'x, y, z'
loop_
 _atom_site_type_symbol
 _atom_site_label
 _atom_site_symmetry_multiplicity
 _atom_site_fract_x
 _atom_site_fract_y
 _atom_site_fract_z
 _atom_site_occupancy
  Mn  Mn0  1  0.711502  0.866049  0.711143  1
  Mn  Mn1  1  0.211143  0.366049  0.211502  1
  Mn  Mn2  1  0.732953  0.536695  0.536828  1
  Mn  Mn3  1  0.693604  0.036793  0.036599  1
  Mn  Mn4  1  0.036828  0.036695  0.232953  1
  Mn  Mn5  1  0.233202  0.036707  0.693456  1
  Mn  Mn6  1  0.536599  0.536793  0.193604  1
  Mn  Mn7  1  0.193456  0.536707  0.733202  1
  P  P8  1  0.095771  0.654235  0.420196  1
  P  P9  1  0.920196  0.154235  0.595771  1
  P  P10  1  0.329637  0.154244  0.920264  1
  P  P11  1  0.420264  0.654244  0.829637  1
  P  P12  1  0.595863  0.154339  0.329702  1
  P  P13  1  0.829702  0.654339  0.095863  1
  O  O14  1  0.402245  0.543715  0.034550  1
  O  O15  1  0.794383  0.060264  0.211671  1
  O  O16  1  0.825708  0.803775  0.108655  1
  O  O17  1  0.261959  0.803652  0.825716  1
  O  O18  1  0.034237  0.543652  0.019895  1
  O  O19  1  0.608655  0.303775  0.325708  1
  O  O20  1  0.902319  0.043541  0.519648  1
  O  O21  1  0.294235  0.560171  0.433714  1
  O  O22  1  0.479106  0.185314  0.214728  1
  O  O23  1  0.212124  0.059930  0.933796  1
  O  O24  1  0.762047  0.303639  0.608340  1
  O  O25  1  0.019648  0.543541  0.402319  1
  O  O26  1  0.214841  0.185217  0.120778  1
  O  O27  1  0.120808  0.185139  0.479173  1
  O  O28  1  0.714728  0.685314  0.979106  1
  O  O29  1  0.620778  0.685217  0.714841  1
  O  O30  1  0.979173  0.685139  0.620808  1
  O  O31  1  0.933714  0.060171  0.794235  1
  O  O32  1  0.108340  0.803639  0.262047  1
  O  O33  1  0.534550  0.043715  0.902245  1
  O  O34  1  0.711671  0.560264  0.294383  1
  O  O35  1  0.519895  0.043652  0.534237  1
  O  O36  1  0.433796  0.559930  0.712124  1
  O  O37  1  0.325716  0.303652  0.761959  1
