# generated using pymatgen
data_La6Mn3O14
_symmetry_space_group_name_H-M   'P 1'
_cell_length_a   5.57201534
_cell_length_b   5.59630245
_cell_length_c   20.35164424
_cell_angle_alpha   90.10229318
_cell_angle_beta   89.99965759
_cell_angle_gamma   90.00140529
_symmetry_Int_Tables_number   1
_chemical_formula_structural   La6Mn3O14
_chemical_formula_sum   'La12 Mn6 O28'
_cell_volume   634.61786096
_cell_formula_units_Z   2
loop_
 _symmetry_equiv_pos_site_id
 _symmetry_equiv_pos_as_xyz
  1  'x, y, z'
loop_
 _atom_site_type_symbol
 _atom_site_label
 _atom_site_symmetry_multiplicity
 _atom_site_fract_x
 _atom_site_fract_y
 _atom_site_fract_z
 _atom_site_occupancy
  La  La0  1  0.222457  0.752180  0.323296  1
  La  La1  1  0.236966  0.764613  0.683230  1
  La  La2  1  0.270889  0.757855  0.491471  1
  La  La3  1  0.229188  0.257839  0.991472  1
  La  La4  1  0.263037  0.264601  0.183236  1
  La  La5  1  0.277532  0.252189  0.823284  1
  La  La6  1  0.737974  0.737662  0.180903  1
  La  La7  1  0.745855  0.718026  0.822597  1
  La  La8  1  0.742436  0.772441  0.990010  1
  La  La9  1  0.757591  0.272549  0.490021  1
  La  La10  1  0.754179  0.218026  0.322617  1
  La  La11  1  0.761990  0.237717  0.680896  1
  Mn  Mn12  1  0.248438  0.751124  0.096569  1
  Mn  Mn13  1  0.244922  0.754322  0.901960  1
  Mn  Mn14  1  0.255101  0.254304  0.401965  1
  Mn  Mn15  1  0.251555  0.251162  0.596552  1
  Mn  Mn16  1  0.746287  0.745608  0.597771  1
  Mn  Mn17  1  0.753729  0.245522  0.097755  1
  O  O18  1  0.001760  0.003925  0.118428  1
  O  O19  1  0.001639  0.492626  0.099771  1
  O  O20  1  0.014244  0.016004  0.414247  1
  O  O21  1  0.008489  0.487565  0.402466  1
  O  O22  1  0.997784  0.991513  0.581873  1
  O  O23  1  0.996724  0.501281  0.600160  1
  O  O24  1  0.008164  0.987935  0.888989  1
  O  O25  1  0.010297  0.509145  0.902761  1
  O  O26  1  0.203956  0.797029  0.996443  1
  O  O27  1  0.222210  0.219966  0.299828  1
  O  O28  1  0.204119  0.196024  0.707138  1
  O  O29  1  0.295866  0.696021  0.207155  1
  O  O30  1  0.277787  0.719964  0.799805  1
  O  O31  1  0.296064  0.297022  0.496440  1
  O  O32  1  0.503226  0.001287  0.100172  1
  O  O33  1  0.502243  0.491496  0.081869  1
  O  O34  1  0.491874  0.487939  0.389015  1
  O  O35  1  0.489699  0.009134  0.402772  1
  O  O36  1  0.498358  0.992681  0.599763  1
  O  O37  1  0.498218  0.503971  0.618412  1
  O  O38  1  0.491553  0.987555  0.902448  1
  O  O39  1  0.485771  0.515981  0.914236  1
  O  O40  1  0.694023  0.692616  0.508292  1
  O  O41  1  0.707925  0.289929  0.200883  1
  O  O42  1  0.684581  0.319771  0.785713  1
  O  O43  1  0.815456  0.819754  0.285733  1
  O  O44  1  0.792029  0.789931  0.700862  1
  O  O45  1  0.805998  0.192579  0.008281  1
