# generated using pymatgen
data_V3Cr(PO4)6
_symmetry_space_group_name_H-M   'P 1'
_cell_length_a   8.74007755
_cell_length_b   8.74007753
_cell_length_c   8.74007807
_cell_angle_alpha   58.40327052
_cell_angle_beta   58.40327085
_cell_angle_gamma   58.40326683
_symmetry_Int_Tables_number   1
_chemical_formula_structural   V3Cr(PO4)6
_chemical_formula_sum   'V3 Cr1 P6 O24'
_cell_volume   454.84320924
_cell_formula_units_Z   1
loop_
 _symmetry_equiv_pos_site_id
 _symmetry_equiv_pos_as_xyz
  1  'x, y, z'
loop_
 _atom_site_type_symbol
 _atom_site_label
 _atom_site_symmetry_multiplicity
 _atom_site_fract_x
 _atom_site_fract_y
 _atom_site_fract_z
 _atom_site_occupancy
  V  V0  1  0.140061  0.140061  0.140061  1
  V  V1  1  0.358809  0.358809  0.358809  1
  V  V2  1  0.639216  0.639216  0.639216  1
  Cr  Cr3  1  0.858273  0.858273  0.858273  1
  P  P4  1  0.032181  0.749835  0.468774  1
  P  P5  1  0.468774  0.032181  0.749835  1
  P  P6  1  0.749835  0.468774  0.032181  1
  P  P7  1  0.248326  0.533269  0.967904  1
  P  P8  1  0.533269  0.967904  0.248326  1
  P  P9  1  0.967904  0.248326  0.533269  1
  O  O10  1  0.139013  0.287904  0.496691  1
  O  O11  1  0.287904  0.496691  0.139013  1
  O  O12  1  0.062200  0.926716  0.283281  1
  O  O13  1  0.496691  0.139013  0.287904  1
  O  O14  1  0.216256  0.575914  0.429180  1
  O  O15  1  0.015556  0.771343  0.636811  1
  O  O16  1  0.283281  0.062200  0.926716  1
  O  O17  1  0.429180  0.216256  0.575914  1
  O  O18  1  0.575914  0.429180  0.216256  1
  O  O19  1  0.224420  0.355817  0.995308  1
  O  O20  1  0.080296  0.713895  0.943437  1
  O  O21  1  0.355817  0.995308  0.224420  1
  O  O22  1  0.636811  0.015556  0.771343  1
  O  O23  1  0.926716  0.283281  0.062200  1
  O  O24  1  0.771343  0.636811  0.015556  1
  O  O25  1  0.431184  0.556284  0.786048  1
  O  O26  1  0.556284  0.786048  0.431184  1
  O  O27  1  0.713895  0.943437  0.080296  1
  O  O28  1  0.995308  0.224420  0.355817  1
  O  O29  1  0.786048  0.431184  0.556284  1
  O  O30  1  0.495129  0.857813  0.722858  1
  O  O31  1  0.943437  0.080296  0.713895  1
  O  O32  1  0.722858  0.495129  0.857813  1
  O  O33  1  0.857813  0.722858  0.495129  1
