# generated using pymatgen
data_Li4Mn3(SnO5)2
_symmetry_space_group_name_H-M   'P 1'
_cell_length_a   8.35386304
_cell_length_b   6.64368711
_cell_length_c   8.25232166
_cell_angle_alpha   113.28710853
_cell_angle_beta   84.74654786
_cell_angle_gamma   91.73214464
_symmetry_Int_Tables_number   1
_chemical_formula_structural   Li4Mn3(SnO5)2
_chemical_formula_sum   'Li8 Mn6 Sn4 O20'
_cell_volume   418.92006210
_cell_formula_units_Z   2
loop_
 _symmetry_equiv_pos_site_id
 _symmetry_equiv_pos_as_xyz
  1  'x, y, z'
loop_
 _atom_site_type_symbol
 _atom_site_label
 _atom_site_symmetry_multiplicity
 _atom_site_fract_x
 _atom_site_fract_y
 _atom_site_fract_z
 _atom_site_occupancy
  Li  Li0  1  0.060072  0.351575  0.781575  1
  Li  Li1  1  0.146124  0.058124  0.396400  1
  Li  Li2  1  0.989176  0.506625  0.480133  1
  Li  Li3  1  0.510824  0.993375  0.519867  1
  Li  Li4  1  0.353876  0.441876  0.603600  1
  Li  Li5  1  0.439928  0.148425  0.218425  1
  Li  Li6  1  0.661783  0.557042  0.387483  1
  Li  Li7  1  0.838217  0.942958  0.612517  1
  Mn  Mn8  1  0.090918  0.216098  0.102559  1
  Mn  Mn9  1  0.409082  0.283902  0.897441  1
  Mn  Mn10  1  0.250000  0.750000  0.000000  1
  Mn  Mn11  1  0.750000  0.250000  0.000000  1
  Mn  Mn12  1  0.594423  0.708087  0.104200  1
  Mn  Mn13  1  0.905577  0.791913  0.895800  1
  Sn  Sn14  1  0.290944  0.603771  0.304622  1
  Sn  Sn15  1  0.209056  0.896229  0.695378  1
  Sn  Sn16  1  0.796897  0.091552  0.306102  1
  Sn  Sn17  1  0.703103  0.408448  0.693898  1
  O  O18  1  0.315032  0.030605  0.941941  1
  O  O19  1  0.290400  0.182663  0.675720  1
  O  O20  1  0.209600  0.317337  0.324280  1
  O  O21  1  0.143282  0.637199  0.767893  1
  O  O22  1  0.093970  0.786938  0.466430  1
  O  O23  1  0.184968  0.469395  0.058059  1
  O  O24  1  0.640639  0.147390  0.762081  1
  O  O25  1  0.009982  0.943277  0.133299  1
  O  O26  1  0.590445  0.285527  0.460960  1
  O  O27  1  0.490018  0.556723  0.866701  1
  O  O28  1  0.510239  0.436375  0.144117  1
  O  O29  1  0.406030  0.713062  0.533570  1
  O  O30  1  0.989761  0.063625  0.855883  1
  O  O31  1  0.356718  0.862801  0.232107  1
  O  O32  1  0.824733  0.526115  0.929143  1
  O  O33  1  0.909555  0.214473  0.539040  1
  O  O34  1  0.859361  0.352610  0.237919  1
  O  O35  1  0.809443  0.676148  0.667166  1
  O  O36  1  0.690557  0.823852  0.332834  1
  O  O37  1  0.675267  0.973885  0.070857  1
