# generated using pymatgen
data_LiV6F13
_symmetry_space_group_name_H-M   'P 1'
_cell_length_a   8.06771011
_cell_length_b   10.23420166
_cell_length_c   8.11694101
_cell_angle_alpha   104.11466468
_cell_angle_beta   117.56402718
_cell_angle_gamma   75.53344783
_symmetry_Int_Tables_number   1
_chemical_formula_structural   LiV6F13
_chemical_formula_sum   'Li2 V12 F26'
_cell_volume   568.82191306
_cell_formula_units_Z   2
loop_
 _symmetry_equiv_pos_site_id
 _symmetry_equiv_pos_as_xyz
  1  'x, y, z'
loop_
 _atom_site_type_symbol
 _atom_site_label
 _atom_site_symmetry_multiplicity
 _atom_site_fract_x
 _atom_site_fract_y
 _atom_site_fract_z
 _atom_site_occupancy
  Li  Li0  1  0.219227  0.055498  0.340528  1
  Li  Li1  1  0.780773  0.944502  0.659472  1
  V  V2  1  0.061860  0.239543  0.942681  1
  V  V3  1  0.279235  0.502272  0.868138  1
  V  V4  1  0.421837  0.021527  0.784841  1
  V  V5  1  0.153787  0.502018  0.417354  1
  V  V6  1  0.507986  0.726590  0.758796  1
  V  V7  1  0.612522  0.254816  0.667487  1
  V  V8  1  0.387478  0.745184  0.332513  1
  V  V9  1  0.492014  0.273410  0.241204  1
  V  V10  1  0.846213  0.497982  0.582646  1
  V  V11  1  0.578163  0.978473  0.215159  1
  V  V12  1  0.720765  0.497728  0.131862  1
  V  V13  1  0.938140  0.760457  0.057319  1
  F  F14  1  0.011316  0.621837  0.838639  1
  F  F15  1  0.156660  0.119801  0.750510  1
  F  F16  1  0.118462  0.399369  0.600122  1
  F  F17  1  0.293547  0.615184  0.686987  1
  F  F18  1  0.409458  0.126792  0.585865  1
  F  F19  1  0.162315  0.636534  0.258355  1
  F  F20  1  0.544373  0.384740  0.883563  1
  F  F21  1  0.297743  0.131955  0.175665  1
  F  F22  1  0.427824  0.878580  0.945495  1
  F  F23  1  0.417401  0.380457  0.459437  1
  F  F24  1  0.323458  0.860889  0.558353  1
  F  F25  1  0.159502  0.884318  0.171986  1
  F  F26  1  0.266233  0.370596  0.025044  1
  F  F27  1  0.733767  0.629404  0.974956  1
  F  F28  1  0.840498  0.115682  0.828014  1
  F  F29  1  0.676542  0.139111  0.441648  1
  F  F30  1  0.582599  0.619543  0.540563  1
  F  F31  1  0.572176  0.121420  0.054505  1
  F  F32  1  0.702257  0.868045  0.824335  1
  F  F33  1  0.455627  0.615260  0.116437  1
  F  F34  1  0.837685  0.363466  0.741645  1
  F  F35  1  0.590542  0.873208  0.414135  1
  F  F36  1  0.706453  0.384816  0.313013  1
  F  F37  1  0.881538  0.600631  0.399878  1
  F  F38  1  0.843340  0.880199  0.249490  1
  F  F39  1  0.988684  0.378163  0.161361  1
