# generated using pymatgen
data_Li4CrFe3O8
_symmetry_space_group_name_H-M   'P 1'
_cell_length_a   5.96888990
_cell_length_b   5.99512334
_cell_length_c   8.44963375
_cell_angle_alpha   89.72618975
_cell_angle_beta   45.14009845
_cell_angle_gamma   119.92577378
_symmetry_Int_Tables_number   1
_chemical_formula_structural   Li4CrFe3O8
_chemical_formula_sum   'Li4 Cr1 Fe3 O8'
_cell_volume   151.23626555
_cell_formula_units_Z   1
loop_
 _symmetry_equiv_pos_site_id
 _symmetry_equiv_pos_as_xyz
  1  'x, y, z'
loop_
 _atom_site_type_symbol
 _atom_site_label
 _atom_site_symmetry_multiplicity
 _atom_site_fract_x
 _atom_site_fract_y
 _atom_site_fract_z
 _atom_site_occupancy
  Li  Li0  1  0.999731  0.500078  0.000040  1
  Li  Li1  1  0.999904  0.000003  0.500136  1
  Li  Li2  1  0.497917  0.499657  0.000805  1
  Li  Li3  1  0.499080  0.999626  0.500440  1
  Cr  Cr4  1  0.999920  0.000034  0.000005  1
  Fe  Fe5  1  0.999922  0.499988  0.500028  1
  Fe  Fe6  1  0.499909  0.000289  0.000106  1
  Fe  Fe7  1  0.499926  0.500144  0.500071  1
  O  O8  1  0.999852  0.515258  0.257412  1
  O  O9  1  0.497911  0.014361  0.757933  1
  O  O10  1  0.999787  0.014493  0.757933  1
  O  O11  1  0.501818  0.516286  0.255950  1
  O  O12  1  0.501916  0.985738  0.242194  1
  O  O13  1  0.000041  0.485069  0.742666  1
  O  O14  1  0.497933  0.483758  0.744180  1
  O  O15  1  0.999865  0.985719  0.242194  1
