# generated using pymatgen
data_NaLiCu(PO3)3
_symmetry_space_group_name_H-M   'P 1'
_cell_length_a   8.81039616
_cell_length_b   9.12133278
_cell_length_c   9.15755880
_cell_angle_alpha   90.00004990
_cell_angle_beta   89.99995521
_cell_angle_gamma   89.99973948
_symmetry_Int_Tables_number   1
_chemical_formula_structural   NaLiCu(PO3)3
_chemical_formula_sum   'Na4 Li4 Cu4 P12 O36'
_cell_volume   735.92482546
_cell_formula_units_Z   4
loop_
 _symmetry_equiv_pos_site_id
 _symmetry_equiv_pos_as_xyz
  1  'x, y, z'
loop_
 _atom_site_type_symbol
 _atom_site_label
 _atom_site_symmetry_multiplicity
 _atom_site_fract_x
 _atom_site_fract_y
 _atom_site_fract_z
 _atom_site_occupancy
  Na  Na0  1  0.862234  0.586995  0.895118  1
  Na  Na1  1  0.137767  0.086997  0.604882  1
  Na  Na2  1  0.637768  0.413006  0.395118  1
  Na  Na3  1  0.362231  0.913004  0.104882  1
  Li  Li4  1  0.122996  0.411562  0.832560  1
  Li  Li5  1  0.877006  0.911568  0.667442  1
  Li  Li6  1  0.377006  0.588434  0.332559  1
  Li  Li7  1  0.622992  0.088429  0.167442  1
  Cu  Cu8  1  0.113069  0.858122  0.894189  1
  Cu  Cu9  1  0.886929  0.358124  0.605810  1
  Cu  Cu10  1  0.386929  0.141879  0.394191  1
  Cu  Cu11  1  0.613069  0.641876  0.105809  1
  P  P12  1  0.953298  0.174778  0.951815  1
  P  P13  1  0.720657  0.933909  0.929843  1
  P  P14  1  0.556299  0.444150  0.767277  1
  P  P15  1  0.443704  0.944150  0.732723  1
  P  P16  1  0.279346  0.433908  0.570157  1
  P  P17  1  0.046702  0.674780  0.548185  1
  P  P18  1  0.546701  0.825224  0.451814  1
  P  P19  1  0.779345  0.066091  0.429844  1
  P  P20  1  0.943701  0.555853  0.267276  1
  P  P21  1  0.056297  0.055848  0.232722  1
  P  P22  1  0.220654  0.566091  0.070155  1
  P  P23  1  0.453299  0.325223  0.048186  1
  O  O24  1  0.788097  0.094187  0.979037  1
  O  O25  1  0.130598  0.613877  0.938190  1
  O  O26  1  0.929057  0.331428  0.904808  1
  O  O27  1  0.515444  0.313920  0.883261  1
  O  O28  1  0.845291  0.840220  0.866820  1
  O  O29  1  0.049722  0.080641  0.853817  1
  O  O30  1  0.607308  0.575647  0.851274  1
  O  O31  1  0.349106  0.877886  0.851755  1
  O  O32  1  0.614375  0.980960  0.795647  1
  O  O33  1  0.385629  0.480963  0.704351  1
  O  O34  1  0.650897  0.377886  0.648248  1
  O  O35  1  0.392694  0.075648  0.648729  1
  O  O36  1  0.950274  0.580639  0.646183  1
  O  O37  1  0.154712  0.340218  0.633182  1
  O  O38  1  0.484556  0.813918  0.616739  1
  O  O39  1  0.070941  0.831424  0.595192  1
  O  O40  1  0.869405  0.113878  0.561807  1
  O  O41  1  0.211903  0.594185  0.520964  1
  O  O42  1  0.711902  0.905814  0.479036  1
  O  O43  1  0.369407  0.386119  0.438195  1
  O  O44  1  0.570941  0.668574  0.404805  1
  O  O45  1  0.984557  0.686082  0.383260  1
  O  O46  1  0.654714  0.159782  0.366817  1
  O  O47  1  0.450276  0.919362  0.353817  1
  O  O48  1  0.892695  0.424353  0.351279  1
  O  O49  1  0.150894  0.122112  0.351755  1
  O  O50  1  0.885629  0.019033  0.295651  1
  O  O51  1  0.114368  0.519035  0.204347  1
  O  O52  1  0.849103  0.622112  0.148250  1
  O  O53  1  0.107308  0.924355  0.148724  1
  O  O54  1  0.549721  0.419358  0.146185  1
  O  O55  1  0.345285  0.659779  0.133183  1
  O  O56  1  0.015442  0.186081  0.116741  1
  O  O57  1  0.429059  0.168571  0.095190  1
  O  O58  1  0.630596  0.886122  0.061807  1
  O  O59  1  0.288097  0.405812  0.020964  1
