# generated using pymatgen
data_FePO4
_symmetry_space_group_name_H-M   'P 1'
_cell_length_a   8.42728596
_cell_length_b   8.66291259
_cell_length_c   8.66291214
_cell_angle_alpha   60.00000241
_cell_angle_beta   59.07069787
_cell_angle_gamma   59.07069838
_symmetry_Int_Tables_number   1
_chemical_formula_structural   FePO4
_chemical_formula_sum   'Fe6 P6 O24'
_cell_volume   440.81392862
_cell_formula_units_Z   6
loop_
 _symmetry_equiv_pos_site_id
 _symmetry_equiv_pos_as_xyz
  1  'x, y, z'
loop_
 _atom_site_type_symbol
 _atom_site_label
 _atom_site_symmetry_multiplicity
 _atom_site_fract_x
 _atom_site_fract_y
 _atom_site_fract_z
 _atom_site_occupancy
  Fe  Fe0  1  0.000000  0.000000  0.000000  1
  Fe  Fe1  1  0.060788  0.646404  0.646404  1
  Fe  Fe2  1  0.560788  0.146404  0.146404  1
  Fe  Fe3  1  0.500000  0.500000  0.500000  1
  Fe  Fe4  1  0.439212  0.853596  0.853596  1
  Fe  Fe5  1  0.939212  0.353596  0.353596  1
  P  P6  1  0.250000  0.250000  0.548134  1
  P  P7  1  0.250000  0.951866  0.250000  1
  P  P8  1  0.250000  0.548134  0.951866  1
  P  P9  1  0.750000  0.451866  0.048134  1
  P  P10  1  0.750000  0.048134  0.750000  1
  P  P11  1  0.750000  0.750000  0.451866  1
  O  O12  1  0.064696  0.107092  0.323428  1
  O  O13  1  0.064696  0.504785  0.107092  1
  O  O14  1  0.064696  0.323428  0.504785  1
  O  O15  1  0.215866  0.095350  0.750522  1
  O  O16  1  0.435304  0.176572  0.392908  1
  O  O17  1  0.284134  0.404650  0.561738  1
  O  O18  1  0.215866  0.938262  0.095350  1
  O  O19  1  0.284134  0.749478  0.404650  1
  O  O20  1  0.564696  0.607092  0.004785  1
  O  O21  1  0.284134  0.561738  0.749478  1
  O  O22  1  0.784134  0.249478  0.061738  1
  O  O23  1  0.564696  0.004785  0.823428  1
  O  O24  1  0.435304  0.995215  0.176572  1
  O  O25  1  0.215866  0.750522  0.938262  1
  O  O26  1  0.715866  0.438262  0.250522  1
  O  O27  1  0.435304  0.392908  0.995215  1
  O  O28  1  0.715866  0.250522  0.595350  1
  O  O29  1  0.784134  0.061738  0.904650  1
  O  O30  1  0.715866  0.595350  0.438262  1
  O  O31  1  0.564696  0.823428  0.607092  1
  O  O32  1  0.784134  0.904650  0.249478  1
  O  O33  1  0.935304  0.676572  0.495215  1
  O  O34  1  0.935304  0.495215  0.892908  1
  O  O35  1  0.935304  0.892908  0.676572  1
