# generated using pymatgen
data_Ti2Mn3Co3O16
_symmetry_space_group_name_H-M   'P 1'
_cell_length_a   5.67784728
_cell_length_b   5.69766978
_cell_length_c   9.02587271
_cell_angle_alpha   89.99985770
_cell_angle_beta   90.69864239
_cell_angle_gamma   120.12994939
_symmetry_Int_Tables_number   1
_chemical_formula_structural   Ti2Mn3Co3O16
_chemical_formula_sum   'Ti2 Mn3 Co3 O16'
_cell_volume   252.51517535
_cell_formula_units_Z   1
loop_
 _symmetry_equiv_pos_site_id
 _symmetry_equiv_pos_as_xyz
  1  'x, y, z'
loop_
 _atom_site_type_symbol
 _atom_site_label
 _atom_site_symmetry_multiplicity
 _atom_site_fract_x
 _atom_site_fract_y
 _atom_site_fract_z
 _atom_site_occupancy
  Ti  Ti0  1  0.330417  0.665216  0.495138  1
  Ti  Ti1  1  0.666535  0.333192  0.996816  1
  Mn  Mn2  1  0.665614  0.832818  0.213453  1
  Mn  Mn3  1  0.832836  0.664216  0.713884  1
  Mn  Mn4  1  0.832852  0.168659  0.713902  1
  Co  Co5  1  0.170152  0.832857  0.212293  1
  Co  Co6  1  0.170185  0.337280  0.212330  1
  Co  Co7  1  0.336914  0.168461  0.711828  1
  O  O8  1  0.168517  0.838421  0.601098  1
  O  O9  1  0.040056  0.519978  0.327867  1
  O  O10  1  0.331252  0.665631  0.104366  1
  O  O11  1  0.005365  0.002684  0.316962  1
  O  O12  1  0.002876  0.001479  0.818555  1
  O  O13  1  0.168504  0.330084  0.601106  1
  O  O14  1  0.478239  0.962005  0.333320  1
  O  O15  1  0.478152  0.516245  0.333347  1
  O  O16  1  0.325413  0.162753  0.105225  1
  O  O17  1  0.665488  0.832753  0.598151  1
  O  O18  1  0.514082  0.476391  0.832623  1
  O  O19  1  0.514044  0.037687  0.832622  1
  O  O20  1  0.666699  0.333324  0.603207  1
  O  O21  1  0.836017  0.667285  0.100457  1
  O  O22  1  0.963764  0.481956  0.836696  1
  O  O23  1  0.836026  0.168826  0.100472  1
