# generated using pymatgen
data_Ti3Nb2V3O16
_symmetry_space_group_name_H-M   'P 1'
_cell_length_a   6.06085102
_cell_length_b   6.00734820
_cell_length_c   9.41926149
_cell_angle_alpha   90.18301857
_cell_angle_beta   89.65348918
_cell_angle_gamma   120.45633836
_symmetry_Int_Tables_number   1
_chemical_formula_structural   Ti3Nb2V3O16
_chemical_formula_sum   'Ti3 Nb2 V3 O16'
_cell_volume   295.62454115
_cell_formula_units_Z   1
loop_
 _symmetry_equiv_pos_site_id
 _symmetry_equiv_pos_as_xyz
  1  'x, y, z'
loop_
 _atom_site_type_symbol
 _atom_site_label
 _atom_site_symmetry_multiplicity
 _atom_site_fract_x
 _atom_site_fract_y
 _atom_site_fract_z
 _atom_site_occupancy
  Ti  Ti0  1  0.175560  0.831761  0.219308  1
  Ti  Ti1  1  0.174873  0.343521  0.219061  1
  Ti  Ti2  1  0.344561  0.169915  0.722396  1
  Nb  Nb3  1  0.341004  0.671231  0.499363  1
  Nb  Nb4  1  0.673049  0.332749  0.999133  1
  V  V5  1  0.662281  0.830098  0.208928  1
  V  V6  1  0.830730  0.656885  0.714457  1
  V  V7  1  0.837792  0.172865  0.709300  1
  O  O8  1  0.173732  0.827893  0.598815  1
  O  O9  1  0.041618  0.519319  0.334225  1
  O  O10  1  0.317881  0.659051  0.105376  1
  O  O11  1  0.005695  0.001747  0.302897  1
  O  O12  1  0.000634  0.985322  0.802396  1
  O  O13  1  0.174743  0.343742  0.600820  1
  O  O14  1  0.467485  0.953178  0.336430  1
  O  O15  1  0.465703  0.515057  0.337008  1
  O  O16  1  0.343180  0.172085  0.098742  1
  O  O17  1  0.661617  0.833170  0.597944  1
  O  O18  1  0.520969  0.477738  0.834361  1
  O  O19  1  0.514796  0.045200  0.834726  1
  O  O20  1  0.663072  0.349787  0.605853  1
  O  O21  1  0.829192  0.655514  0.099567  1
  O  O22  1  0.949037  0.480049  0.836219  1
  O  O23  1  0.830794  0.172324  0.098393  1
