# generated using pymatgen
data_MnP2HO7
_symmetry_space_group_name_H-M   'P 1'
_cell_length_a   8.12465968
_cell_length_b   12.81851289
_cell_length_c   5.04023025
_cell_angle_alpha   90.00000000
_cell_angle_beta   101.03204943
_cell_angle_gamma   90.00000000
_symmetry_Int_Tables_number   1
_chemical_formula_structural   MnP2HO7
_chemical_formula_sum   'Mn4 P8 H4 O28'
_cell_volume   515.21972905
_cell_formula_units_Z   4
loop_
 _symmetry_equiv_pos_site_id
 _symmetry_equiv_pos_as_xyz
  1  'x, y, z'
loop_
 _atom_site_type_symbol
 _atom_site_label
 _atom_site_symmetry_multiplicity
 _atom_site_fract_x
 _atom_site_fract_y
 _atom_site_fract_z
 _atom_site_occupancy
  Mn  Mn0  1  0.504662  0.873692  0.370524  1
  Mn  Mn1  1  0.004662  0.626308  0.870524  1
  Mn  Mn2  1  0.495338  0.126308  0.629476  1
  Mn  Mn3  1  0.995338  0.373692  0.129476  1
  P  P4  1  0.249811  0.964827  0.850207  1
  P  P5  1  0.749811  0.535173  0.350207  1
  P  P6  1  0.750189  0.035173  0.149793  1
  P  P7  1  0.250189  0.464827  0.649793  1
  P  P8  1  0.254883  0.677967  0.436894  1
  P  P9  1  0.754883  0.822033  0.936894  1
  P  P10  1  0.745117  0.322033  0.563106  1
  P  P11  1  0.245117  0.177967  0.063106  1
  H  H12  1  0.102484  0.832233  0.635894  1
  H  H13  1  0.602484  0.667767  0.135894  1
  H  H14  1  0.897516  0.167767  0.364106  1
  H  H15  1  0.397516  0.332233  0.864106  1
  O  O16  1  0.334526  0.571923  0.588582  1
  O  O17  1  0.834526  0.928077  0.088582  1
  O  O18  1  0.665474  0.428077  0.411418  1
  O  O19  1  0.165474  0.071923  0.911418  1
  O  O20  1  0.301994  0.902466  0.110007  1
  O  O21  1  0.801994  0.597534  0.610007  1
  O  O22  1  0.698006  0.097534  0.889993  1
  O  O23  1  0.198006  0.402466  0.389993  1
  O  O24  1  0.110792  0.711088  0.573351  1
  O  O25  1  0.610792  0.788912  0.073351  1
  O  O26  1  0.889208  0.288912  0.426649  1
  O  O27  1  0.389208  0.211088  0.926649  1
  O  O28  1  0.399217  0.988988  0.708711  1
  O  O29  1  0.899217  0.511012  0.208711  1
  O  O30  1  0.600783  0.011012  0.291289  1
  O  O31  1  0.100783  0.488988  0.791289  1
  O  O32  1  0.204772  0.650855  0.137286  1
  O  O33  1  0.704772  0.849145  0.637286  1
  O  O34  1  0.795228  0.349145  0.862714  1
  O  O35  1  0.295228  0.150855  0.362714  1
  O  O36  1  0.403504  0.752251  0.494664  1
  O  O37  1  0.903504  0.747749  0.994664  1
  O  O38  1  0.596496  0.247749  0.505336  1
  O  O39  1  0.096496  0.252251  0.005336  1
  O  O40  1  0.102671  0.911348  0.658935  1
  O  O41  1  0.602671  0.588652  0.158935  1
  O  O42  1  0.897329  0.088652  0.341065  1
  O  O43  1  0.397329  0.411348  0.841065  1
