# generated using pymatgen
data_Li4Mn3CrCo2(PO4)6
_symmetry_space_group_name_H-M   'P 1'
_cell_length_a   8.41512674
_cell_length_b   8.97717863
_cell_length_c   8.99238124
_cell_angle_alpha   59.66130232
_cell_angle_beta   59.13586347
_cell_angle_gamma   58.29892024
_symmetry_Int_Tables_number   1
_chemical_formula_structural   Li4Mn3CrCo2(PO4)6
_chemical_formula_sum   'Li4 Mn3 Cr1 Co2 P6 O24'
_cell_volume   469.60981948
_cell_formula_units_Z   1
loop_
 _symmetry_equiv_pos_site_id
 _symmetry_equiv_pos_as_xyz
  1  'x, y, z'
loop_
 _atom_site_type_symbol
 _atom_site_label
 _atom_site_symmetry_multiplicity
 _atom_site_fract_x
 _atom_site_fract_y
 _atom_site_fract_z
 _atom_site_occupancy
  Li  Li0  1  0.249254  0.850397  0.641387  1
  Li  Li1  1  0.766058  0.151408  0.347767  1
  Li  Li2  1  0.761180  0.737837  0.145409  1
  Li  Li3  1  0.765803  0.352869  0.736568  1
  Mn  Mn4  1  0.057381  0.645384  0.648614  1
  Mn  Mn5  1  0.439511  0.853700  0.852087  1
  Mn  Mn6  1  0.962508  0.347507  0.345859  1
  Cr  Cr7  1  0.557857  0.149258  0.146308  1
  Co  Co8  1  0.007840  0.991668  0.011843  1
  Co  Co9  1  0.495766  0.498638  0.496768  1
  P  P10  1  0.257796  0.249069  0.554827  1
  P  P11  1  0.246505  0.947945  0.248500  1
  P  P12  1  0.246925  0.557526  0.945593  1
  P  P13  1  0.744183  0.452119  0.049234  1
  P  P14  1  0.759274  0.049831  0.751940  1
  P  P15  1  0.734637  0.752236  0.449930  1
  O  O16  1  0.049835  0.096928  0.316623  1
  O  O17  1  0.049926  0.538994  0.091785  1
  O  O18  1  0.054789  0.313846  0.541240  1
  O  O19  1  0.245161  0.080012  0.742169  1
  O  O20  1  0.432457  0.187013  0.390132  1
  O  O21  1  0.291280  0.392165  0.570456  1
  O  O22  1  0.224568  0.930026  0.096028  1
  O  O23  1  0.284726  0.759106  0.404370  1
  O  O24  1  0.559216  0.611370  0.003862  1
  O  O25  1  0.284333  0.576493  0.748828  1
  O  O26  1  0.761952  0.253407  0.076027  1
  O  O27  1  0.591962  0.986831  0.814708  1
  O  O28  1  0.428995  0.999095  0.176662  1
  O  O29  1  0.225822  0.754340  0.922953  1
  O  O30  1  0.715104  0.431077  0.245944  1
  O  O31  1  0.429335  0.395304  0.993538  1
  O  O32  1  0.720256  0.248229  0.605656  1
  O  O33  1  0.767328  0.077578  0.911302  1
  O  O34  1  0.720934  0.602012  0.419202  1
  O  O35  1  0.538980  0.815041  0.598788  1
  O  O36  1  0.760995  0.909926  0.252399  1
  O  O37  1  0.914845  0.691689  0.492509  1
  O  O38  1  0.932531  0.477724  0.900693  1
  O  O39  1  0.962195  0.907397  0.688491  1
