# generated using pymatgen
data_Li2Cr3NiO8
_symmetry_space_group_name_H-M   'P 1'
_cell_length_a   5.82796622
_cell_length_b   5.82799517
_cell_length_c   9.63609509
_cell_angle_alpha   89.99433437
_cell_angle_beta   90.01565981
_cell_angle_gamma   120.00002482
_symmetry_Int_Tables_number   1
_chemical_formula_structural   Li2Cr3NiO8
_chemical_formula_sum   'Li4 Cr6 Ni2 O16'
_cell_volume   283.44434187
_cell_formula_units_Z   2
loop_
 _symmetry_equiv_pos_site_id
 _symmetry_equiv_pos_as_xyz
  1  'x, y, z'
loop_
 _atom_site_type_symbol
 _atom_site_label
 _atom_site_symmetry_multiplicity
 _atom_site_fract_x
 _atom_site_fract_y
 _atom_site_fract_z
 _atom_site_occupancy
  Li  Li0  1  0.333376  0.666704  0.893587  1
  Li  Li1  1  0.999914  0.000025  0.997886  1
  Li  Li2  1  0.999983  0.000052  0.497864  1
  Li  Li3  1  0.666693  0.333379  0.393704  1
  Cr  Cr4  1  0.168567  0.831401  0.213816  1
  Cr  Cr5  1  0.168572  0.337029  0.213747  1
  Cr  Cr6  1  0.662975  0.831463  0.213738  1
  Cr  Cr7  1  0.337144  0.168533  0.713810  1
  Cr  Cr8  1  0.831490  0.662858  0.713815  1
  Cr  Cr9  1  0.831508  0.168517  0.713736  1
  Ni  Ni10  1  0.333363  0.666703  0.490007  1
  Ni  Ni11  1  0.666639  0.333426  0.989931  1
  O  O12  1  0.159618  0.840339  0.610273  1
  O  O13  1  0.038171  0.519066  0.327431  1
  O  O14  1  0.333258  0.666628  0.102643  1
  O  O15  1  0.000061  0.999986  0.315334  1
  O  O16  1  0.000082  0.000029  0.815346  1
  O  O17  1  0.159633  0.319383  0.610274  1
  O  O18  1  0.480948  0.961819  0.327452  1
  O  O19  1  0.480874  0.519171  0.327481  1
  O  O20  1  0.319272  0.159658  0.110258  1
  O  O21  1  0.680641  0.840354  0.610267  1
  O  O22  1  0.519125  0.480965  0.827409  1
  O  O23  1  0.519185  0.038261  0.827419  1
  O  O24  1  0.666619  0.333337  0.602665  1
  O  O25  1  0.840250  0.680673  0.110246  1
  O  O26  1  0.961803  0.480887  0.827440  1
  O  O27  1  0.840237  0.159652  0.110262  1
