# generated using pymatgen
data_Li4VF8
_symmetry_space_group_name_H-M   'P 1'
_cell_length_a   5.17624633
_cell_length_b   5.27266609
_cell_length_c   6.08210476
_cell_angle_alpha   90.00000000
_cell_angle_beta   90.00000000
_cell_angle_gamma   112.12158510
_symmetry_Int_Tables_number   1
_chemical_formula_structural   Li4VF8
_chemical_formula_sum   'Li4 V1 F8'
_cell_volume   153.77703157
_cell_formula_units_Z   1
loop_
 _symmetry_equiv_pos_site_id
 _symmetry_equiv_pos_as_xyz
  1  'x, y, z'
loop_
 _atom_site_type_symbol
 _atom_site_label
 _atom_site_symmetry_multiplicity
 _atom_site_fract_x
 _atom_site_fract_y
 _atom_site_fract_z
 _atom_site_occupancy
  Li  Li0  1  0.000000  0.500000  0.815301  1
  Li  Li1  1  0.500000  0.500000  0.007875  1
  Li  Li2  1  0.500000  0.000000  0.764161  1
  Li  Li3  1  0.500000  0.000000  0.210261  1
  V  V4  1  0.500000  0.500000  0.495988  1
  F  F5  1  0.295153  0.732941  0.510325  1
  F  F6  1  0.301294  0.738386  0.981652  1
  F  F7  1  0.262394  0.283739  0.718660  1
  F  F8  1  0.286330  0.266775  0.279328  1
  F  F9  1  0.713670  0.733225  0.279328  1
  F  F10  1  0.737606  0.716261  0.718660  1
  F  F11  1  0.698706  0.261614  0.981652  1
  F  F12  1  0.704847  0.267059  0.510325  1
