# generated using pymatgen
data_Li6Fe3Sn(PO4)6
_symmetry_space_group_name_H-M   'P 1'
_cell_length_a   8.58767541
_cell_length_b   8.65690837
_cell_length_c   8.64650526
_cell_angle_alpha   61.77204391
_cell_angle_beta   62.04515716
_cell_angle_gamma   62.05397509
_symmetry_Int_Tables_number   1
_chemical_formula_structural   Li6Fe3Sn(PO4)6
_chemical_formula_sum   'Li6 Fe3 Sn1 P6 O24'
_cell_volume   474.42771917
_cell_formula_units_Z   1
loop_
 _symmetry_equiv_pos_site_id
 _symmetry_equiv_pos_as_xyz
  1  'x, y, z'
loop_
 _atom_site_type_symbol
 _atom_site_label
 _atom_site_symmetry_multiplicity
 _atom_site_fract_x
 _atom_site_fract_y
 _atom_site_fract_z
 _atom_site_occupancy
  Li  Li0  1  0.022889  0.008254  0.001357  1
  Li  Li1  1  0.746153  0.148763  0.351733  1
  Li  Li2  1  0.480562  0.503530  0.497388  1
  Li  Li3  1  0.293078  0.839122  0.647345  1
  Li  Li4  1  0.643198  0.294705  0.838702  1
  Li  Li5  1  0.839251  0.643197  0.296040  1
  Fe  Fe6  1  0.146534  0.143759  0.139509  1
  Fe  Fe7  1  0.352435  0.361103  0.356496  1
  Fe  Fe8  1  0.649159  0.645746  0.652954  1
  Sn  Sn9  1  0.854666  0.849773  0.853703  1
  P  P10  1  0.746943  0.442453  0.053603  1
  P  P11  1  0.054978  0.745949  0.441742  1
  P  P12  1  0.441272  0.053813  0.748334  1
  P  P13  1  0.247546  0.538742  0.959716  1
  P  P14  1  0.546098  0.960704  0.250733  1
  P  P15  1  0.953889  0.244904  0.537316  1
  O  O16  1  0.125362  0.290604  0.491877  1
  O  O17  1  0.305580  0.504868  0.118061  1
  O  O18  1  0.058424  0.916566  0.263196  1
  O  O19  1  0.535717  0.114935  0.300671  1
  O  O20  1  0.017753  0.800922  0.608375  1
  O  O21  1  0.244404  0.590416  0.428003  1
  O  O22  1  0.256595  0.076846  0.908314  1
  O  O23  1  0.446332  0.235449  0.580847  1
  O  O24  1  0.172178  0.389589  0.005065  1
  O  O25  1  0.594196  0.424589  0.246480  1
  O  O26  1  0.094465  0.738853  0.930705  1
  O  O27  1  0.383337  0.018142  0.186712  1
  O  O28  1  0.607444  0.014316  0.807837  1
  O  O29  1  0.904154  0.253243  0.077597  1
  O  O30  1  0.405553  0.553643  0.769804  1
  O  O31  1  0.804955  0.605602  0.016980  1
  O  O32  1  0.554298  0.772360  0.410047  1
  O  O33  1  0.742781  0.923853  0.094156  1
  O  O34  1  0.767868  0.406243  0.559787  1
  O  O35  1  0.973184  0.180250  0.390066  1
  O  O36  1  0.467330  0.896874  0.693728  1
  O  O37  1  0.932521  0.089369  0.736405  1
  O  O38  1  0.687188  0.471338  0.899218  1
  O  O39  1  0.899729  0.683613  0.472395  1
