# generated using pymatgen
data_Li3Mn4FeO8
_symmetry_space_group_name_H-M   'P 1'
_cell_length_a   6.20024190
_cell_length_b   6.20024183
_cell_length_c   6.20344393
_cell_angle_alpha   86.07456971
_cell_angle_beta   57.73626864
_cell_angle_gamma   57.69672908
_symmetry_Int_Tables_number   1
_chemical_formula_structural   Li3Mn4FeO8
_chemical_formula_sum   'Li3 Mn4 Fe1 O8'
_cell_volume   162.41576280
_cell_formula_units_Z   1
loop_
 _symmetry_equiv_pos_site_id
 _symmetry_equiv_pos_as_xyz
  1  'x, y, z'
loop_
 _atom_site_type_symbol
 _atom_site_label
 _atom_site_symmetry_multiplicity
 _atom_site_fract_x
 _atom_site_fract_y
 _atom_site_fract_z
 _atom_site_occupancy
  Li  Li0  1  0.000000  0.000000  0.500000  1
  Li  Li1  1  0.500000  0.000000  0.500000  1
  Li  Li2  1  0.500000  0.500000  0.500000  1
  Mn  Mn3  1  0.000000  0.500000  0.500000  1
  Mn  Mn4  1  0.000000  0.000000  0.000000  1
  Mn  Mn5  1  0.500000  0.000000  0.000000  1
  Mn  Mn6  1  0.000000  0.500000  0.000000  1
  Fe  Fe7  1  0.500000  0.500000  0.000000  1
  O  O8  1  0.480510  0.271324  0.790814  1
  O  O9  1  0.985203  0.253940  0.752801  1
  O  O10  1  0.501138  0.738004  0.752801  1
  O  O11  1  0.981157  0.752068  0.770910  1
  O  O12  1  0.018843  0.247932  0.229090  1
  O  O13  1  0.498862  0.261996  0.247199  1
  O  O14  1  0.014797  0.746060  0.247199  1
  O  O15  1  0.519490  0.728676  0.209186  1
