# generated using pymatgen
data_Li3SbS4
_symmetry_space_group_name_H-M   'P 1'
_cell_length_a   8.02942046
_cell_length_b   6.92094730
_cell_length_c   6.47720987
_cell_angle_alpha   90.00000000
_cell_angle_beta   90.00000000
_cell_angle_gamma   90.00000000
_symmetry_Int_Tables_number   1
_chemical_formula_structural   Li3SbS4
_chemical_formula_sum   'Li6 Sb2 S8'
_cell_volume   359.94629827
_cell_formula_units_Z   2
loop_
 _symmetry_equiv_pos_site_id
 _symmetry_equiv_pos_as_xyz
  1  'x, y, z'
loop_
 _atom_site_type_symbol
 _atom_site_label
 _atom_site_symmetry_multiplicity
 _atom_site_fract_x
 _atom_site_fract_y
 _atom_site_fract_z
 _atom_site_occupancy
  Li  Li0  1  0.000000  0.153493  0.502961  1
  Li  Li1  1  0.246291  0.324283  0.996853  1
  Li  Li2  1  0.253709  0.675717  0.496853  1
  Li  Li3  1  0.500000  0.846507  0.002961  1
  Li  Li4  1  0.746291  0.675717  0.496853  1
  Li  Li5  1  0.753709  0.324283  0.996853  1
  Sb  Sb6  1  0.000000  0.826304  0.995528  1
  Sb  Sb7  1  0.500000  0.173696  0.495528  1
  S  S8  1  0.000000  0.147940  0.119533  1
  S  S9  1  0.000000  0.819863  0.629287  1
  S  S10  1  0.241627  0.664902  0.115043  1
  S  S11  1  0.258372  0.335098  0.615043  1
  S  S12  1  0.500000  0.180137  0.129287  1
  S  S13  1  0.500000  0.852060  0.619533  1
  S  S14  1  0.741627  0.335098  0.615043  1
  S  S15  1  0.758373  0.664902  0.115043  1
