# generated using pymatgen
data_P4WO12
_symmetry_space_group_name_H-M   'P 1'
_cell_length_a   5.34084718
_cell_length_b   13.87436287
_cell_length_c   7.27955432
_cell_angle_alpha   90.00000000
_cell_angle_beta   97.89960208
_cell_angle_gamma   90.00000000
_symmetry_Int_Tables_number   1
_chemical_formula_structural   P4WO12
_chemical_formula_sum   'P8 W2 O24'
_cell_volume   534.30229473
_cell_formula_units_Z   2
loop_
 _symmetry_equiv_pos_site_id
 _symmetry_equiv_pos_as_xyz
  1  'x, y, z'
loop_
 _atom_site_type_symbol
 _atom_site_label
 _atom_site_symmetry_multiplicity
 _atom_site_fract_x
 _atom_site_fract_y
 _atom_site_fract_z
 _atom_site_occupancy
  P  P0  1  0.008108  0.123934  0.556843  1
  P  P1  1  0.030577  0.904064  0.560754  1
  P  P2  1  0.134762  0.328984  0.091490  1
  P  P3  1  0.216441  0.676499  0.106029  1
  P  P4  1  0.783559  0.176499  0.893971  1
  P  P5  1  0.865238  0.828984  0.908510  1
  P  P6  1  0.969423  0.404064  0.439246  1
  P  P7  1  0.991892  0.623934  0.443157  1
  W  W8  1  0.489104  0.265201  0.496018  1
  W  W9  1  0.510896  0.765201  0.503982  1
  O  O10  1  0.008547  0.138833  0.771810  1
  O  O11  1  0.049167  0.736649  0.947717  1
  O  O12  1  0.035128  0.892844  0.777334  1
  O  O13  1  0.048175  0.512801  0.483499  1
  O  O14  1  0.186061  0.384740  0.931173  1
  O  O15  1  0.168819  0.342319  0.547531  1
  O  O16  1  0.201308  0.679013  0.557880  1
  O  O17  1  0.272777  0.142402  0.508858  1
  O  O18  1  0.296328  0.889385  0.512347  1
  O  O19  1  0.357508  0.285978  0.224278  1
  O  O20  1  0.350133  0.596620  0.031000  1
  O  O21  1  0.373420  0.750167  0.232904  1
  O  O22  1  0.626580  0.250167  0.767096  1
  O  O23  1  0.649867  0.096620  0.969000  1
  O  O24  1  0.642492  0.785978  0.775722  1
  O  O25  1  0.703672  0.389385  0.487653  1
  O  O26  1  0.727223  0.642402  0.491142  1
  O  O27  1  0.798692  0.179013  0.442120  1
  O  O28  1  0.831181  0.842319  0.452469  1
  O  O29  1  0.813939  0.884740  0.068827  1
  O  O30  1  0.951825  0.012801  0.516501  1
  O  O31  1  0.964872  0.392844  0.222666  1
  O  O32  1  0.950833  0.236649  0.052283  1
  O  O33  1  0.991453  0.638833  0.228190  1
