# generated using pymatgen
data_Li2NiP2O7
_symmetry_space_group_name_H-M   'P 1'
_cell_length_a   5.22481944
_cell_length_b   6.15759217
_cell_length_c   8.71267282
_cell_angle_alpha   68.23645512
_cell_angle_beta   89.17855024
_cell_angle_gamma   84.66778131
_symmetry_Int_Tables_number   1
_chemical_formula_structural   Li2NiP2O7
_chemical_formula_sum   'Li4 Ni2 P4 O14'
_cell_volume   259.13915661
_cell_formula_units_Z   2
loop_
 _symmetry_equiv_pos_site_id
 _symmetry_equiv_pos_as_xyz
  1  'x, y, z'
loop_
 _atom_site_type_symbol
 _atom_site_label
 _atom_site_symmetry_multiplicity
 _atom_site_fract_x
 _atom_site_fract_y
 _atom_site_fract_z
 _atom_site_occupancy
  Li  Li0  1  0.237710  0.342674  0.464515  1
  Li  Li1  1  0.275246  0.078626  0.855420  1
  Li  Li2  1  0.724754  0.921374  0.144580  1
  Li  Li3  1  0.762290  0.657326  0.535485  1
  Ni  Ni4  1  0.230375  0.696492  0.726506  1
  Ni  Ni5  1  0.769625  0.303508  0.273494  1
  P  P6  1  0.215868  0.663037  0.135176  1
  P  P7  1  0.302786  0.926759  0.344790  1
  P  P8  1  0.697214  0.073241  0.655210  1
  P  P9  1  0.784132  0.336963  0.864824  1
  O  O10  1  0.056130  0.380311  0.797677  1
  O  O11  1  0.123504  0.135591  0.339415  1
  O  O12  1  0.231793  0.742020  0.949006  1
  O  O13  1  0.238990  0.693610  0.478302  1
  O  O14  1  0.272326  0.908567  0.160526  1
  O  O15  1  0.407909  0.040608  0.649968  1
  O  O16  1  0.422093  0.481836  0.238954  1
  O  O17  1  0.577907  0.518164  0.761046  1
  O  O18  1  0.592091  0.959392  0.350032  1
  O  O19  1  0.727674  0.091433  0.839474  1
  O  O20  1  0.761010  0.306390  0.521698  1
  O  O21  1  0.768207  0.257980  0.050994  1
  O  O22  1  0.876496  0.864409  0.660585  1
  O  O23  1  0.943870  0.619689  0.202323  1
