# generated using pymatgen
data_TiMn4O10
_symmetry_space_group_name_H-M   'P 1'
_cell_length_a   5.81886264
_cell_length_b   5.84580592
_cell_length_c   24.15565968
_cell_angle_alpha   96.75584162
_cell_angle_beta   90.00000000
_cell_angle_gamma   60.15234754
_symmetry_Int_Tables_number   1
_chemical_formula_structural   TiMn4O10
_chemical_formula_sum   'Ti4 Mn16 O40'
_cell_volume   706.09800958
_cell_formula_units_Z   4
loop_
 _symmetry_equiv_pos_site_id
 _symmetry_equiv_pos_as_xyz
  1  'x, y, z'
loop_
 _atom_site_type_symbol
 _atom_site_label
 _atom_site_symmetry_multiplicity
 _atom_site_fract_x
 _atom_site_fract_y
 _atom_site_fract_z
 _atom_site_occupancy
  Ti  Ti0  1  0.325203  0.349595  0.024812  1
  Ti  Ti1  1  0.924797  0.150405  0.225188  1
  Ti  Ti2  1  0.325004  0.349993  0.524959  1
  Ti  Ti3  1  0.924996  0.150007  0.725041  1
  Mn  Mn4  1  0.125000  0.750000  0.125000  1
  Mn  Mn5  1  0.625000  0.250000  0.125000  1
  Mn  Mn6  1  0.125000  0.250000  0.125000  1
  Mn  Mn7  1  0.724732  0.550535  0.325413  1
  Mn  Mn8  1  0.525631  0.948737  0.424914  1
  Mn  Mn9  1  0.224825  0.050180  0.325461  1
  Mn  Mn10  1  0.325210  0.849838  0.524984  1
  Mn  Mn11  1  0.724995  0.050180  0.325461  1
  Mn  Mn12  1  0.824953  0.849838  0.524984  1
  Mn  Mn13  1  0.125000  0.750000  0.625000  1
  Mn  Mn14  1  0.924790  0.650162  0.725016  1
  Mn  Mn15  1  0.425047  0.650162  0.725016  1
  Mn  Mn16  1  0.525268  0.949465  0.924587  1
  Mn  Mn17  1  0.724369  0.551263  0.825086  1
  Mn  Mn18  1  0.525005  0.449820  0.924539  1
  Mn  Mn19  1  0.025175  0.449820  0.924539  1
  O  O20  1  0.240163  0.965586  0.171045  1
  O  O21  1  0.794252  0.965586  0.171045  1
  O  O22  1  0.455748  0.534414  0.078955  1
  O  O23  1  0.009837  0.534414  0.078955  1
  O  O24  1  0.055458  0.889085  0.279419  1
  O  O25  1  0.278239  0.443521  0.165667  1
  O  O26  1  0.455288  0.089424  0.079011  1
  O  O27  1  0.571574  0.856851  0.284639  1
  O  O28  1  0.794712  0.410576  0.170989  1
  O  O29  1  0.971761  0.056479  0.084333  1
  O  O30  1  0.835650  0.767871  0.372104  1
  O  O31  1  0.396479  0.767871  0.372104  1
  O  O32  1  0.609287  0.334623  0.279291  1
  O  O33  1  0.056090  0.334623  0.279291  1
  O  O34  1  0.878045  0.243910  0.366019  1
  O  O35  1  0.653628  0.692744  0.478319  1
  O  O36  1  0.169170  0.661659  0.483594  1
  O  O37  1  0.396939  0.206121  0.372297  1
  O  O38  1  0.436926  0.572144  0.572696  1
  O  O39  1  0.990930  0.572144  0.572696  1
  O  O40  1  0.213284  0.127011  0.477143  1
  O  O41  1  0.659706  0.127011  0.477143  1
  O  O42  1  0.259070  0.927856  0.677304  1
  O  O43  1  0.813074  0.927856  0.677304  1
  O  O44  1  0.253192  0.493617  0.678172  1
  O  O45  1  0.080830  0.838341  0.766406  1
  O  O46  1  0.480801  0.038398  0.566305  1
  O  O47  1  0.596372  0.807256  0.771681  1
  O  O48  1  0.996808  0.006383  0.571828  1
  O  O49  1  0.769199  0.461602  0.683695  1
  O  O50  1  0.036716  0.372989  0.772857  1
  O  O51  1  0.590294  0.372989  0.772857  1
  O  O52  1  0.853521  0.732129  0.877896  1
  O  O53  1  0.414350  0.732129  0.877896  1
  O  O54  1  0.853061  0.293879  0.877703  1
  O  O55  1  0.678426  0.643149  0.965361  1
  O  O56  1  0.371955  0.256090  0.883981  1
  O  O57  1  0.194542  0.610915  0.970581  1
  O  O58  1  0.193910  0.165377  0.970709  1
  O  O59  1  0.640713  0.165377  0.970709  1
