# generated using pymatgen
data_LiLa7(CuO7)2
_symmetry_space_group_name_H-M   'P 1'
_cell_length_a   11.61559920
_cell_length_b   11.61559920
_cell_length_c   11.87668605
_cell_angle_alpha   65.81788666
_cell_angle_beta   114.18211334
_cell_angle_gamma   111.09523628
_symmetry_Int_Tables_number   1
_chemical_formula_structural   LiLa7(CuO7)2
_chemical_formula_sum   'Li4 La28 Cu8 O56'
_cell_volume   1297.51407177
_cell_formula_units_Z   4
loop_
 _symmetry_equiv_pos_site_id
 _symmetry_equiv_pos_as_xyz
  1  'x, y, z'
loop_
 _atom_site_type_symbol
 _atom_site_label
 _atom_site_symmetry_multiplicity
 _atom_site_fract_x
 _atom_site_fract_y
 _atom_site_fract_z
 _atom_site_occupancy
  Li  Li0  1  0.928588  0.071412  0.643469  1
  Li  Li1  1  0.357126  0.642874  0.785102  1
  Li  Li2  1  0.214295  0.785705  0.071833  1
  Li  Li3  1  0.071419  0.928581  0.356738  1
  La  La4  1  0.718187  0.007102  0.788493  1
  La  La5  1  0.992898  0.281813  0.788493  1
  La  La6  1  0.928416  0.352036  0.432334  1
  La  La7  1  0.209245  0.066829  0.856747  1
  La  La8  1  0.647964  0.071584  0.432334  1
  La  La9  1  0.508813  0.223098  0.714286  1
  La  La10  1  0.776902  0.491187  0.714286  1
  La  La11  1  0.933171  0.790755  0.856747  1
  La  La12  1  0.576699  0.142456  0.066032  1
  La  La13  1  0.428170  0.290984  0.362539  1
  La  La14  1  0.862179  0.861199  0.500281  1
  La  La15  1  0.292816  0.432473  0.640078  1
  La  La16  1  0.146913  0.576465  0.928290  1
  La  La17  1  0.857544  0.423301  0.066032  1
  La  La18  1  0.138801  0.137821  0.500281  1
  La  La19  1  0.709016  0.571830  0.362539  1
  La  La20  1  0.567527  0.707184  0.640078  1
  La  La21  1  0.423536  0.853087  0.928290  1
  La  La22  1  0.790353  0.937870  0.139077  1
  La  La23  1  0.223584  0.504639  0.289495  1
  La  La24  1  0.352543  0.923530  0.571825  1
  La  La25  1  0.495361  0.776416  0.289495  1
  La  La26  1  0.062130  0.209647  0.139077  1
  La  La27  1  0.076470  0.647457  0.571825  1
  La  La28  1  0.357298  0.362250  0.996237  1
  La  La29  1  0.637750  0.642702  0.996237  1
  La  La30  1  0.003111  0.717397  0.214286  1
  La  La31  1  0.282603  0.996889  0.214286  1
  Cu  Cu32  1  0.857340  0.142660  0.286264  1
  Cu  Cu33  1  0.714532  0.285468  0.571065  1
  Cu  Cu34  1  0.571182  0.428818  0.857507  1
  Cu  Cu35  1  0.642857  0.357143  0.214286  1
  Cu  Cu36  1  0.000374  0.999626  0.000026  1
  Cu  Cu37  1  0.428375  0.571625  0.142307  1
  Cu  Cu38  1  0.285340  0.714660  0.428545  1
  Cu  Cu39  1  0.142857  0.857143  0.714286  1
  O  O40  1  0.964847  0.035153  0.825321  1
  O  O41  1  0.895961  0.104039  0.964722  1
  O  O42  1  0.600723  0.028397  0.930481  1
  O  O43  1  0.971603  0.399277  0.930481  1
  O  O44  1  0.962512  0.037488  0.320134  1
  O  O45  1  0.675406  0.324594  0.891879  1
  O  O46  1  0.892110  0.107890  0.461443  1
  O  O47  1  0.819705  0.180295  0.607081  1
  O  O48  1  0.749270  0.250730  0.745899  1
  O  O49  1  0.898374  0.469900  0.570203  1
  O  O50  1  0.530100  0.101626  0.570203  1
  O  O51  1  0.328904  0.043190  0.714286  1
  O  O52  1  0.956810  0.671096  0.714286  1
  O  O53  1  0.387340  0.244386  0.858368  1
  O  O54  1  0.755614  0.612660  0.858368  1
  O  O55  1  0.536444  0.463556  0.682673  1
  O  O56  1  0.393604  0.606396  0.967128  1
  O  O57  1  0.466009  0.533991  0.821490  1
  O  O58  1  0.822238  0.177762  0.112126  1
  O  O59  1  0.678305  0.321695  0.393235  1
  O  O60  1  0.750823  0.249177  0.249633  1
  O  O61  1  0.610308  0.389692  0.536693  1
  O  O62  1  0.108518  0.251685  0.641832  1
  O  O63  1  0.821980  0.536265  0.214286  1
  O  O64  1  0.314112  0.315008  0.498091  1
  O  O65  1  0.892410  0.748374  0.357999  1
  O  O66  1  0.463735  0.178020  0.214286  1
  O  O67  1  0.748315  0.891482  0.641832  1
  O  O68  1  0.684992  0.685888  0.498091  1
  O  O69  1  0.537399  0.822804  0.786739  1
  O  O70  1  0.251626  0.107590  0.357999  1
  O  O71  1  0.177196  0.462601  0.786739  1
  O  O72  1  0.320867  0.679133  0.603251  1
  O  O73  1  0.177657  0.822343  0.888661  1
  O  O74  1  0.534892  0.465108  0.178939  1
  O  O75  1  0.389753  0.610247  0.463849  1
  O  O76  1  0.247376  0.752624  0.748617  1
  O  O77  1  0.607409  0.392591  0.035336  1
  O  O78  1  0.463476  0.536524  0.316445  1
  O  O79  1  0.814959  0.814940  0.000010  1
  O  O80  1  0.100654  0.529245  0.428561  1
  O  O81  1  0.245092  0.386163  0.143608  1
  O  O82  1  0.671877  0.959379  0.284964  1
  O  O83  1  0.185060  0.185041  0.000010  1
  O  O84  1  0.613837  0.754907  0.143608  1
  O  O85  1  0.470755  0.899346  0.428561  1
  O  O86  1  0.040621  0.328123  0.284964  1
  O  O87  1  0.250719  0.749281  0.254165  1
  O  O88  1  0.180184  0.819816  0.392721  1
  O  O89  1  0.038338  0.961662  0.679954  1
  O  O90  1  0.323203  0.676797  0.108438  1
  O  O91  1  0.108057  0.891943  0.539911  1
  O  O92  1  0.393304  0.965911  0.070573  1
  O  O93  1  0.034089  0.606696  0.070573  1
  O  O94  1  0.034996  0.965004  0.174406  1
  O  O95  1  0.105531  0.894469  0.035851  1
