# generated using pymatgen
data_Li10Mn2Fe3Ni3O16
_symmetry_space_group_name_H-M   'P 1'
_cell_length_a   5.98396610
_cell_length_b   5.96793515
_cell_length_c   9.78657649
_cell_angle_alpha   89.09141217
_cell_angle_beta   90.37294163
_cell_angle_gamma   120.43950013
_symmetry_Int_Tables_number   1
_chemical_formula_structural   Li10Mn2Fe3Ni3O16
_chemical_formula_sum   'Li10 Mn2 Fe3 Ni3 O16'
_cell_volume   301.28597430
_cell_formula_units_Z   1
loop_
 _symmetry_equiv_pos_site_id
 _symmetry_equiv_pos_as_xyz
  1  'x, y, z'
loop_
 _atom_site_type_symbol
 _atom_site_label
 _atom_site_symmetry_multiplicity
 _atom_site_fract_x
 _atom_site_fract_y
 _atom_site_fract_z
 _atom_site_occupancy
  Li  Li0  1  0.199341  0.807291  0.051230  1
  Li  Li1  1  0.608473  0.809659  0.052471  1
  Li  Li2  1  0.326454  0.655275  0.266938  1
  Li  Li3  1  0.194696  0.392279  0.048294  1
  Li  Li4  1  0.997418  0.991570  0.980572  1
  Li  Li5  1  0.994477  0.991073  0.476088  1
  Li  Li6  1  0.803102  0.602744  0.545009  1
  Li  Li7  1  0.388929  0.193249  0.539400  1
  Li  Li8  1  0.660623  0.314696  0.767755  1
  Li  Li9  1  0.804435  0.195244  0.538186  1
  Mn  Mn10  1  0.326650  0.653268  0.521517  1
  Mn  Mn11  1  0.659989  0.321620  0.023937  1
  Fe  Fe12  1  0.164843  0.817608  0.778371  1
  Fe  Fe13  1  0.657588  0.819066  0.778373  1
  Fe  Fe14  1  0.818843  0.644977  0.276086  1
  Ni  Ni15  1  0.162958  0.321571  0.778342  1
  Ni  Ni16  1  0.334866  0.163284  0.279426  1
  Ni  Ni17  1  0.825355  0.162878  0.280045  1
  O  O18  1  0.162382  0.813675  0.407669  1
  O  O19  1  0.483028  0.963506  0.648448  1
  O  O20  1  0.990627  0.985787  0.172873  1
  O  O21  1  0.024036  0.506907  0.649072  1
  O  O22  1  0.649763  0.815219  0.407890  1
  O  O23  1  0.331884  0.661396  0.896295  1
  O  O24  1  0.990767  0.974040  0.667481  1
  O  O25  1  0.485190  0.507898  0.648624  1
  O  O26  1  0.166054  0.336072  0.414170  1
  O  O27  1  0.503354  0.497513  0.157597  1
  O  O28  1  0.824949  0.645196  0.898820  1
  O  O29  1  0.979691  0.492119  0.152867  1
  O  O30  1  0.665242  0.332424  0.398361  1
  O  O31  1  0.327522  0.142636  0.898457  1
  O  O32  1  0.510760  0.025271  0.147910  1
  O  O33  1  0.823219  0.138557  0.894902  1
