# generated using pymatgen
data_Li4Ti2Fe3Co3O16
_symmetry_space_group_name_H-M   'P 1'
_cell_length_a   5.86761566
_cell_length_b   5.89341213
_cell_length_c   9.52672154
_cell_angle_alpha   90.15371539
_cell_angle_beta   90.94656159
_cell_angle_gamma   120.01808524
_symmetry_Int_Tables_number   1
_chemical_formula_structural   Li4Ti2Fe3Co3O16
_chemical_formula_sum   'Li4 Ti2 Fe3 Co3 O16'
_cell_volume   285.18679191
_cell_formula_units_Z   1
loop_
 _symmetry_equiv_pos_site_id
 _symmetry_equiv_pos_as_xyz
  1  'x, y, z'
loop_
 _atom_site_type_symbol
 _atom_site_label
 _atom_site_symmetry_multiplicity
 _atom_site_fract_x
 _atom_site_fract_y
 _atom_site_fract_z
 _atom_site_occupancy
  Li  Li0  1  0.324124  0.664866  0.896690  1
  Li  Li1  1  0.009294  0.003955  0.994201  1
  Li  Li2  1  0.007229  0.000811  0.493342  1
  Li  Li3  1  0.661510  0.330141  0.396924  1
  Ti  Ti4  1  0.332778  0.663924  0.496656  1
  Ti  Ti5  1  0.668769  0.334007  0.994963  1
  Fe  Fe6  1  0.659456  0.829622  0.212395  1
  Fe  Fe7  1  0.828245  0.659086  0.715004  1
  Fe  Fe8  1  0.832728  0.173590  0.715188  1
  Co  Co9  1  0.177973  0.833874  0.217061  1
  Co  Co10  1  0.177358  0.344063  0.216601  1
  Co  Co11  1  0.343533  0.171249  0.713957  1
  O  O12  1  0.181450  0.846177  0.600011  1
  O  O13  1  0.038740  0.520230  0.345675  1
  O  O14  1  0.321089  0.663663  0.106043  1
  O  O15  1  0.010001  0.002623  0.303521  1
  O  O16  1  0.015599  0.007588  0.806565  1
  O  O17  1  0.180049  0.333195  0.598896  1
  O  O18  1  0.475102  0.957961  0.343380  1
  O  O19  1  0.476027  0.517400  0.343320  1
  O  O20  1  0.339661  0.169017  0.097183  1
  O  O21  1  0.667043  0.833835  0.591365  1
  O  O22  1  0.501325  0.464780  0.835132  1
  O  O23  1  0.501976  0.038803  0.834819  1
  O  O24  1  0.653842  0.326630  0.606089  1
  O  O25  1  0.830419  0.665376  0.092764  1
  O  O26  1  0.954820  0.478010  0.847503  1
  O  O27  1  0.829857  0.165822  0.092590  1
