# generated using pymatgen
data_Li2NiH8(CO5)2
_symmetry_space_group_name_H-M   'P 1'
_cell_length_a   11.30191826
_cell_length_b   5.89106951
_cell_length_c   6.05957713
_cell_angle_alpha   90.00000000
_cell_angle_beta   97.71650699
_cell_angle_gamma   90.00000000
_symmetry_Int_Tables_number   1
_chemical_formula_structural   Li2NiH8(CO5)2
_chemical_formula_sum   'Li4 Ni2 H16 C4 O20'
_cell_volume   399.79557512
_cell_formula_units_Z   2
loop_
 _symmetry_equiv_pos_site_id
 _symmetry_equiv_pos_as_xyz
  1  'x, y, z'
loop_
 _atom_site_type_symbol
 _atom_site_label
 _atom_site_symmetry_multiplicity
 _atom_site_fract_x
 _atom_site_fract_y
 _atom_site_fract_z
 _atom_site_occupancy
  Li  Li0  1  0.184555  0.722928  0.406204  1
  Li  Li1  1  0.315445  0.222928  0.093796  1
  Li  Li2  1  0.684555  0.777072  0.906204  1
  Li  Li3  1  0.815445  0.277072  0.593796  1
  Ni  Ni4  1  0.000000  0.000000  0.000000  1
  Ni  Ni5  1  0.500000  0.500000  0.500000  1
  H  H6  1  0.016197  0.312128  0.250909  1
  H  H7  1  0.071420  0.327140  0.742151  1
  H  H8  1  0.103609  0.089748  0.654029  1
  H  H9  1  0.136586  0.164383  0.326964  1
  H  H10  1  0.396391  0.589748  0.845971  1
  H  H11  1  0.428580  0.827140  0.757849  1
  H  H12  1  0.363414  0.664383  0.173036  1
  H  H13  1  0.483803  0.812128  0.249091  1
  H  H14  1  0.516197  0.187872  0.750909  1
  H  H15  1  0.636586  0.335617  0.826964  1
  H  H16  1  0.571420  0.172860  0.242151  1
  H  H17  1  0.603609  0.410252  0.154029  1
  H  H18  1  0.863414  0.835617  0.673036  1
  H  H19  1  0.896391  0.910252  0.345971  1
  H  H20  1  0.928580  0.672860  0.257849  1
  H  H21  1  0.983803  0.687872  0.749091  1
  C  C22  1  0.184781  0.643559  0.920187  1
  C  C23  1  0.315219  0.143559  0.579813  1
  C  C24  1  0.684781  0.856441  0.420187  1
  C  C25  1  0.815219  0.356441  0.079813  1
  O  O26  1  0.038650  0.170253  0.719193  1
  O  O27  1  0.121623  0.602403  0.729030  1
  O  O28  1  0.090050  0.247913  0.197854  1
  O  O29  1  0.153614  0.795169  0.055484  1
  O  O30  1  0.217577  0.028429  0.520201  1
  O  O31  1  0.282423  0.528429  0.979799  1
  O  O32  1  0.346386  0.295169  0.444516  1
  O  O33  1  0.378377  0.102403  0.770970  1
  O  O34  1  0.461350  0.670253  0.780807  1
  O  O35  1  0.409950  0.747913  0.302146  1
  O  O36  1  0.590050  0.252087  0.697854  1
  O  O37  1  0.538650  0.329747  0.219193  1
  O  O38  1  0.621623  0.897597  0.229030  1
  O  O39  1  0.653614  0.704831  0.555484  1
  O  O40  1  0.717577  0.471571  0.020201  1
  O  O41  1  0.782423  0.971571  0.479799  1
  O  O42  1  0.846386  0.204831  0.944516  1
  O  O43  1  0.909950  0.752087  0.802146  1
  O  O44  1  0.878377  0.397597  0.270970  1
  O  O45  1  0.961350  0.829747  0.280807  1
