# generated using pymatgen
data_LiFe2O2F3
_symmetry_space_group_name_H-M   'P 1'
_cell_length_a   5.11498454
_cell_length_b   5.93668275
_cell_length_c   7.68575518
_cell_angle_alpha   79.16021897
_cell_angle_beta   110.00953135
_cell_angle_gamma   64.74329433
_symmetry_Int_Tables_number   1
_chemical_formula_structural   LiFe2O2F3
_chemical_formula_sum   'Li2 Fe4 O4 F6'
_cell_volume   182.36727322
_cell_formula_units_Z   2
loop_
 _symmetry_equiv_pos_site_id
 _symmetry_equiv_pos_as_xyz
  1  'x, y, z'
loop_
 _atom_site_type_symbol
 _atom_site_label
 _atom_site_symmetry_multiplicity
 _atom_site_fract_x
 _atom_site_fract_y
 _atom_site_fract_z
 _atom_site_occupancy
  Li  Li0  1  0.100438  0.452570  0.984140  1
  Li  Li1  1  0.539002  0.060871  0.473983  1
  Fe  Fe2  1  0.804018  0.977378  0.128962  1
  Fe  Fe3  1  0.337583  0.484207  0.632332  1
  Fe  Fe4  1  0.655820  0.517131  0.376022  1
  Fe  Fe5  1  0.195526  0.005493  0.870522  1
  O  O6  1  0.230778  0.727969  0.366958  1
  O  O7  1  0.376761  0.239372  0.869475  1
  O  O8  1  0.594352  0.769381  0.140115  1
  O  O9  1  0.751142  0.252759  0.633166  1
  F  F10  1  0.391774  0.742070  0.756278  1
  F  F11  1  0.842878  0.700514  0.548576  1
  F  F12  1  0.975565  0.207379  0.037656  1
  F  F13  1  0.001548  0.793757  0.959600  1
  F  F14  1  0.146312  0.288295  0.468587  1
  F  F15  1  0.574813  0.250756  0.248987  1
