# generated using pymatgen
data_LiMn5O7F
_symmetry_space_group_name_H-M   'P 1'
_cell_length_a   6.16144056
_cell_length_b   6.16144056
_cell_length_c   6.06310324
_cell_angle_alpha   59.46201458
_cell_angle_beta   90.00000000
_cell_angle_gamma   120.00000000
_symmetry_Int_Tables_number   1
_chemical_formula_structural   LiMn5O7F
_chemical_formula_sum   'Li1 Mn5 O7 F1'
_cell_volume   161.42272677
_cell_formula_units_Z   1
loop_
 _symmetry_equiv_pos_site_id
 _symmetry_equiv_pos_as_xyz
  1  'x, y, z'
loop_
 _atom_site_type_symbol
 _atom_site_label
 _atom_site_symmetry_multiplicity
 _atom_site_fract_x
 _atom_site_fract_y
 _atom_site_fract_z
 _atom_site_occupancy
  Li  Li0  1  0.237040  0.474080  0.288879  1
  Mn  Mn1  1  0.623486  0.246972  0.129542  1
  Mn  Mn2  1  0.012971  0.025943  0.961086  1
  Mn  Mn3  1  0.632658  0.265316  0.611793  1
  Mn  Mn4  1  0.632658  0.755549  0.611793  1
  Mn  Mn5  1  0.122891  0.755549  0.611793  1
  O  O6  1  0.823621  0.205410  0.412801  1
  O  O7  1  0.381789  0.205410  0.412801  1
  O  O8  1  0.866255  0.291181  0.842564  1
  O  O9  1  0.877961  0.755921  0.366118  1
  O  O10  1  0.424925  0.291181  0.842564  1
  O  O11  1  0.866255  0.732511  0.842564  1
  O  O12  1  0.381789  0.763577  0.412801  1
  F  F13  1  0.365699  0.731398  0.902904  1
