# generated using pymatgen
data_Li10Fe2Co3Ni3O16
_symmetry_space_group_name_H-M   'P 1'
_cell_length_a   5.83187637
_cell_length_b   5.93948946
_cell_length_c   9.58018754
_cell_angle_alpha   88.79363894
_cell_angle_beta   89.62719897
_cell_angle_gamma   60.29180170
_symmetry_Int_Tables_number   1
_chemical_formula_structural   Li10Fe2Co3Ni3O16
_chemical_formula_sum   'Li10 Fe2 Co3 Ni3 O16'
_cell_volume   288.15811469
_cell_formula_units_Z   1
loop_
 _symmetry_equiv_pos_site_id
 _symmetry_equiv_pos_as_xyz
  1  'x, y, z'
loop_
 _atom_site_type_symbol
 _atom_site_label
 _atom_site_symmetry_multiplicity
 _atom_site_fract_x
 _atom_site_fract_y
 _atom_site_fract_z
 _atom_site_occupancy
  Li  Li0  1  0.620138  0.189531  0.052025  1
  Li  Li1  1  0.810921  0.371972  0.547297  1
  Li  Li2  1  0.181480  0.189574  0.050915  1
  Li  Li3  1  0.325657  0.325859  0.266676  1
  Li  Li4  1  0.983363  0.001609  0.472928  1
  Li  Li5  1  0.806348  0.778180  0.543838  1
  Li  Li6  1  0.669114  0.647484  0.769920  1
  Li  Li7  1  0.202015  0.586535  0.040938  1
  Li  Li8  1  0.376081  0.797160  0.551593  1
  Li  Li9  1  0.002069  0.988008  0.975459  1
  Fe  Fe10  1  0.653360  0.682523  0.028369  1
  Fe  Fe11  1  0.327395  0.332976  0.522987  1
  Co  Co12  1  0.819625  0.341830  0.280006  1
  Co  Co13  1  0.663230  0.159307  0.779788  1
  Co  Co14  1  0.168651  0.159812  0.780068  1
  Ni  Ni15  1  0.166872  0.654678  0.778614  1
  Ni  Ni16  1  0.824444  0.831150  0.279163  1
  Ni  Ni17  1  0.324918  0.832279  0.280530  1
  O  O18  1  0.979305  0.025526  0.170928  1
  O  O19  1  0.993122  0.010671  0.672065  1
  O  O20  1  0.652615  0.182583  0.397980  1
  O  O21  1  0.838341  0.311945  0.892259  1
  O  O22  1  0.974322  0.500472  0.155221  1
  O  O23  1  0.488387  0.017211  0.660431  1
  O  O24  1  0.509913  0.503011  0.154666  1
  O  O25  1  0.664382  0.649809  0.393517  1
  O  O26  1  0.499066  0.470604  0.660631  1
  O  O27  1  0.142637  0.179687  0.401655  1
  O  O28  1  0.340586  0.307324  0.890113  1
  O  O29  1  0.826861  0.833569  0.899972  1
  O  O30  1  0.501360  0.984952  0.155208  1
  O  O31  1  0.019286  0.470426  0.661576  1
  O  O32  1  0.151469  0.668443  0.410442  1
  O  O33  1  0.332717  0.833414  0.899359  1
