# generated using pymatgen
data_Li4Co2Ni3O10
_symmetry_space_group_name_H-M   'P 1'
_cell_length_a   20.66049320
_cell_length_b   2.86858271
_cell_length_c   5.80807139
_cell_angle_alpha   90.00000000
_cell_angle_beta   82.79090181
_cell_angle_gamma   90.00000000
_symmetry_Int_Tables_number   1
_chemical_formula_structural   Li4Co2Ni3O10
_chemical_formula_sum   'Li8 Co4 Ni6 O20'
_cell_volume   341.50193973
_cell_formula_units_Z   2
loop_
 _symmetry_equiv_pos_site_id
 _symmetry_equiv_pos_as_xyz
  1  'x, y, z'
loop_
 _atom_site_type_symbol
 _atom_site_label
 _atom_site_symmetry_multiplicity
 _atom_site_fract_x
 _atom_site_fract_y
 _atom_site_fract_z
 _atom_site_occupancy
  Li  Li0  1  0.200000  0.000000  0.900000  1
  Li  Li1  1  0.393521  0.000000  0.287160  1
  Li  Li2  1  0.497421  0.500000  0.498484  1
  Li  Li3  1  0.599383  0.000000  0.699552  1
  Li  Li4  1  0.700000  0.500000  0.900000  1
  Li  Li5  1  0.800617  0.000000  0.100448  1
  Li  Li6  1  0.902579  0.500000  0.301516  1
  Li  Li7  1  0.006479  0.000000  0.512840  1
  Co  Co8  1  0.101878  0.500000  0.201273  1
  Co  Co9  1  0.200000  0.000000  0.400000  1
  Co  Co10  1  0.298122  0.500000  0.598727  1
  Co  Co11  1  0.700000  0.500000  0.400000  1
  Ni  Ni12  1  0.397789  0.000000  0.801480  1
  Ni  Ni13  1  0.499788  0.500000  0.997083  1
  Ni  Ni14  1  0.599486  0.000000  0.200435  1
  Ni  Ni15  1  0.800514  0.000000  0.599565  1
  Ni  Ni16  1  0.900212  0.500000  0.802917  1
  Ni  Ni17  1  0.002211  0.000000  0.998520  1
  O  O18  1  0.008871  0.500000  0.234732  1
  O  O19  1  0.106106  0.000000  0.416048  1
  O  O20  1  0.101273  0.000000  0.989476  1
  O  O21  1  0.193270  0.500000  0.180757  1
  O  O22  1  0.206730  0.500000  0.619243  1
  O  O23  1  0.293894  0.000000  0.383952  1
  O  O24  1  0.298727  0.000000  0.810524  1
  O  O25  1  0.408992  0.500000  0.028577  1
  O  O26  1  0.391129  0.500000  0.565268  1
  O  O27  1  0.499203  0.000000  0.231769  1
  O  O28  1  0.500009  0.000000  0.763117  1
  O  O29  1  0.606974  0.500000  0.430122  1
  O  O30  1  0.593268  0.500000  0.968223  1
  O  O31  1  0.700172  0.000000  0.172981  1
  O  O32  1  0.699828  0.000000  0.627019  1
  O  O33  1  0.793026  0.500000  0.369878  1
  O  O34  1  0.806732  0.500000  0.831777  1
  O  O35  1  0.899991  0.000000  0.036883  1
  O  O36  1  0.900797  0.000000  0.568231  1
  O  O37  1  0.991008  0.500000  0.771423  1
