# generated using pymatgen
data_Li3Cr4(PO4)6
_symmetry_space_group_name_H-M   'P 1'
_cell_length_a   8.75805641
_cell_length_b   8.48147951
_cell_length_c   6.35883750
_cell_angle_alpha   74.45722548
_cell_angle_beta   106.87729036
_cell_angle_gamma   88.54133389
_symmetry_Int_Tables_number   1
_chemical_formula_structural   Li3Cr4(PO4)6
_chemical_formula_sum   'Li3 Cr4 P6 O24'
_cell_volume   432.72937430
_cell_formula_units_Z   1
loop_
 _symmetry_equiv_pos_site_id
 _symmetry_equiv_pos_as_xyz
  1  'x, y, z'
loop_
 _atom_site_type_symbol
 _atom_site_label
 _atom_site_symmetry_multiplicity
 _atom_site_fract_x
 _atom_site_fract_y
 _atom_site_fract_z
 _atom_site_occupancy
  Li  Li0  1  0.294760  0.286872  0.739117  1
  Li  Li1  1  0.500000  0.500000  0.000000  1
  Li  Li2  1  0.705240  0.713128  0.260883  1
  Cr  Cr3  1  0.059479  0.623431  0.134313  1
  Cr  Cr4  1  0.381410  0.940939  0.634758  1
  Cr  Cr5  1  0.618590  0.059061  0.365242  1
  Cr  Cr6  1  0.940521  0.376569  0.865687  1
  P  P7  1  0.150996  0.645018  0.650154  1
  P  P8  1  0.282168  0.285876  0.247861  1
  P  P9  1  0.352077  0.852475  0.132177  1
  P  P10  1  0.647923  0.147525  0.867823  1
  P  P11  1  0.717832  0.714124  0.752139  1
  P  P12  1  0.849004  0.354982  0.349846  1
  O  O13  1  0.049030  0.595866  0.825184  1
  O  O14  1  0.026361  0.646388  0.415149  1
  O  O15  1  0.191486  0.822588  0.626418  1
  O  O16  1  0.159035  0.263618  0.025781  1
  O  O17  1  0.263635  0.165949  0.468922  1
  O  O18  1  0.181652  0.806870  0.128307  1
  O  O19  1  0.295890  0.520867  0.730116  1
  O  O20  1  0.344203  0.986914  0.907153  1
  O  O21  1  0.252018  0.463243  0.264321  1
  O  O22  1  0.412051  0.940968  0.328479  1
  O  O23  1  0.533862  0.297459  0.825462  1
  O  O24  1  0.452266  0.262690  0.225520  1
  O  O25  1  0.547734  0.737310  0.774480  1
  O  O26  1  0.466138  0.702541  0.174538  1
  O  O27  1  0.587949  0.059032  0.671521  1
  O  O28  1  0.747982  0.536757  0.735679  1
  O  O29  1  0.655797  0.013086  0.092847  1
  O  O30  1  0.704110  0.479133  0.269884  1
  O  O31  1  0.818348  0.193130  0.871693  1
  O  O32  1  0.736365  0.834051  0.531078  1
  O  O33  1  0.840965  0.736382  0.974219  1
  O  O34  1  0.808514  0.177412  0.373582  1
  O  O35  1  0.973639  0.353612  0.584851  1
  O  O36  1  0.950970  0.404134  0.174816  1
