# generated using pymatgen
data_V3OF11
_symmetry_space_group_name_H-M   'P 1'
_cell_length_a   5.45710823
_cell_length_b   5.25500638
_cell_length_c   14.75627110
_cell_angle_alpha   90.00000000
_cell_angle_beta   100.36809807
_cell_angle_gamma   90.00000000
_symmetry_Int_Tables_number   1
_chemical_formula_structural   V3OF11
_chemical_formula_sum   'V6 O2 F22'
_cell_volume   416.25807784
_cell_formula_units_Z   2
loop_
 _symmetry_equiv_pos_site_id
 _symmetry_equiv_pos_as_xyz
  1  'x, y, z'
loop_
 _atom_site_type_symbol
 _atom_site_label
 _atom_site_symmetry_multiplicity
 _atom_site_fract_x
 _atom_site_fract_y
 _atom_site_fract_z
 _atom_site_occupancy
  V  V0  1  0.999880  -0.000015  0.000063  1
  V  V1  1  0.117229  0.479414  0.330832  1
  V  V2  1  0.333539  0.999924  0.666588  1
  V  V3  1  0.499880  0.500015  0.000063  1
  V  V4  1  0.617230  0.020586  0.330832  1
  V  V5  1  0.833539  0.500076  0.666588  1
  O  O6  1  0.377576  0.220028  0.310856  1
  O  O7  1  0.877576  0.279972  0.310856  1
  F  F8  1  0.021163  0.195385  0.641829  1
  F  F9  1  0.187490  0.304360  0.975101  1
  F  F10  1  0.146480  0.695689  0.691631  1
  F  F11  1  0.041733  0.088597  0.117538  1
  F  F12  1  0.230181  0.428587  0.449685  1
  F  F13  1  0.374976  0.087854  0.784033  1
  F  F14  1  0.135672  0.586732  0.218009  1
  F  F15  1  0.293781  0.913930  0.549192  1
  F  F16  1  0.459138  0.587724  0.882878  1
  F  F17  1  0.521163  0.304615  0.641829  1
  F  F18  1  0.687490  0.195640  0.975101  1
  F  F19  1  0.312650  0.804217  0.025251  1
  F  F20  1  0.468508  0.723673  0.356514  1
  F  F21  1  0.646480  0.804311  0.691631  1
  F  F22  1  0.541733  0.411403  0.117538  1
  F  F23  1  0.730181  0.071413  0.449685  1
  F  F24  1  0.874976  0.412146  0.784033  1
  F  F25  1  0.635672  0.913268  0.218009  1
  F  F26  1  0.793781  0.586070  0.549192  1
  F  F27  1  0.959138  0.912276  0.882878  1
  F  F28  1  0.812650  0.695783  0.025251  1
  F  F29  1  0.968508  0.776327  0.356514  1
