# generated using pymatgen
data_LiCoP2O7
_symmetry_space_group_name_H-M   'P 1'
_cell_length_a   6.38736298
_cell_length_b   10.57256037
_cell_length_c   9.21250789
_cell_angle_alpha   65.27356078
_cell_angle_beta   107.12389183
_cell_angle_gamma   93.93978021
_symmetry_Int_Tables_number   1
_chemical_formula_structural   LiCoP2O7
_chemical_formula_sum   'Li4 Co4 P8 O28'
_cell_volume   538.97448963
_cell_formula_units_Z   4
loop_
 _symmetry_equiv_pos_site_id
 _symmetry_equiv_pos_as_xyz
  1  'x, y, z'
loop_
 _atom_site_type_symbol
 _atom_site_label
 _atom_site_symmetry_multiplicity
 _atom_site_fract_x
 _atom_site_fract_y
 _atom_site_fract_z
 _atom_site_occupancy
  Li  Li0  1  0.013424  0.512778  0.154603  1
  Li  Li1  1  0.339484  0.586644  0.941484  1
  Li  Li2  1  0.559333  0.017046  0.509870  1
  Li  Li3  1  0.934703  0.054987  0.930408  1
  Co  Co4  1  0.287502  0.228983  0.896257  1
  Co  Co5  1  0.368548  0.255444  0.494794  1
  Co  Co6  1  0.634667  0.747408  0.493958  1
  Co  Co7  1  0.717733  0.786266  0.095958  1
  P  P8  1  0.108773  0.702974  0.433650  1
  P  P9  1  0.311080  0.961566  0.805799  1
  P  P10  1  0.081948  0.211913  0.181965  1
  P  P11  1  0.411849  0.467776  0.688859  1
  P  P12  1  0.577454  0.540070  0.298407  1
  P  P13  1  0.926967  0.803024  0.815467  1
  P  P14  1  0.696677  0.048448  0.191181  1
  P  P15  1  0.885584  0.298381  0.546076  1
  O  O16  1  0.047458  0.661238  0.920280  1
  O  O17  1  0.083956  0.913356  0.716742  1
  O  O18  1  0.049339  0.293367  0.457810  1
  O  O19  1  0.997973  0.709913  0.257124  1
  O  O20  1  0.260679  0.035547  0.903781  1
  O  O21  1  0.194444  0.541326  0.537715  1
  O  O22  1  0.356433  0.441687  0.849987  1
  O  O23  1  0.447121  0.821879  0.924478  1
  O  O24  1  0.311604  0.787180  0.448487  1
  O  O25  1  0.115642  0.157836  0.058941  1
  O  O26  1  0.409962  0.052135  0.667170  1
  O  O27  1  0.298336  0.183836  0.328514  1
  O  O28  1  0.430875  0.319950  0.690956  1
  O  O29  1  0.372607  0.459475  0.321332  1
  O  O30  1  0.601965  0.556728  0.654043  1
  O  O31  1  0.566713  0.688236  0.295177  1
  O  O32  1  0.718595  0.818170  0.671701  1
  O  O33  1  0.608924  0.957996  0.335578  1
  O  O34  1  0.690489  0.207913  0.526138  1
  O  O35  1  0.873191  0.870631  0.920858  1
  O  O36  1  0.553563  0.182823  0.067176  1
  O  O37  1  0.780084  0.457575  0.457946  1
  O  O38  1  0.633045  0.564813  0.137072  1
  O  O39  1  0.747180  0.973846  0.092062  1
  O  O40  1  0.992180  0.270185  0.730242  1
  O  O41  1  0.945680  0.733375  0.509428  1
  O  O42  1  0.923226  0.099511  0.274757  1
  O  O43  1  0.985946  0.357530  0.104674  1
