# generated using pymatgen
data_LiLa2Ti2CrO9
_symmetry_space_group_name_H-M   'P 1'
_cell_length_a   5.47594472
_cell_length_b   5.55451618
_cell_length_c   23.41397228
_cell_angle_alpha   90.00000000
_cell_angle_beta   89.98113439
_cell_angle_gamma   90.00000000
_symmetry_Int_Tables_number   1
_chemical_formula_structural   LiLa2Ti2CrO9
_chemical_formula_sum   'Li4 La8 Ti8 Cr4 O36'
_cell_volume   712.16457576
_cell_formula_units_Z   4
loop_
 _symmetry_equiv_pos_site_id
 _symmetry_equiv_pos_as_xyz
  1  'x, y, z'
loop_
 _atom_site_type_symbol
 _atom_site_label
 _atom_site_symmetry_multiplicity
 _atom_site_fract_x
 _atom_site_fract_y
 _atom_site_fract_z
 _atom_site_occupancy
  Li  Li0  1  0.000151  0.918949  0.083049  1
  Li  Li1  1  0.008869  0.937656  0.751070  1
  Li  Li2  1  0.491131  0.437656  0.415597  1
  Li  Li3  1  0.499849  0.418949  0.083618  1
  La  La4  1  0.008538  0.032896  0.415821  1
  La  La5  1  0.491462  0.532896  0.750846  1
  La  La6  1  0.505721  0.470688  0.249895  1
  La  La7  1  0.506569  0.471651  0.581021  1
  La  La8  1  0.505864  0.473259  0.919381  1
  La  La9  1  0.994136  0.973260  0.247286  1
  La  La10  1  0.994279  0.970688  0.916771  1
  La  La11  1  0.993431  0.971651  0.585645  1
  Ti  Ti12  1  0.003574  0.484798  0.007010  1
  Ti  Ti13  1  0.003460  0.484134  0.159645  1
  Ti  Ti14  1  0.999818  0.508859  0.494245  1
  Ti  Ti15  1  0.000409  0.495942  0.830544  1
  Ti  Ti16  1  0.496540  0.984134  0.007021  1
  Ti  Ti17  1  0.500182  0.008860  0.672422  1
  Ti  Ti18  1  0.499591  0.995942  0.336123  1
  Ti  Ti19  1  0.496426  0.984798  0.159657  1
  Cr  Cr20  1  0.999126  0.505165  0.333358  1
  Cr  Cr21  1  0.999615  0.500121  0.667822  1
  Cr  Cr22  1  0.500385  0.000121  0.498844  1
  Cr  Cr23  1  0.500874  0.005165  0.833308  1
  O  O24  1  0.895784  0.509403  0.083349  1
  O  O25  1  0.908050  0.495184  0.416749  1
  O  O26  1  0.932398  0.491659  0.751769  1
  O  O27  1  0.211566  0.805812  0.014254  1
  O  O28  1  0.207566  0.806712  0.153300  1
  O  O29  1  0.210709  0.799439  0.340514  1
  O  O30  1  0.204700  0.793278  0.489987  1
  O  O31  1  0.218556  0.793205  0.682248  1
  O  O32  1  0.213405  0.787259  0.819110  1
  O  O33  1  0.292434  0.306712  0.013367  1
  O  O34  1  0.288434  0.305812  0.152412  1
  O  O35  1  0.286595  0.287259  0.347557  1
  O  O36  1  0.281444  0.293205  0.484419  1
  O  O37  1  0.295300  0.293278  0.676680  1
  O  O38  1  0.289291  0.299439  0.826153  1
  O  O39  1  0.604216  0.009403  0.083318  1
  O  O40  1  0.567602  0.991659  0.414898  1
  O  O41  1  0.591950  0.995184  0.749918  1
  O  O42  1  0.430205  0.025422  0.247816  1
  O  O43  1  0.428674  0.013809  0.919006  1
  O  O44  1  0.430094  0.014042  0.583530  1
  O  O45  1  0.717477  0.738369  0.181592  1
  O  O46  1  0.717348  0.718372  0.846493  1
  O  O47  1  0.729214  0.728060  0.515492  1
  O  O48  1  0.711280  0.721519  0.654627  1
  O  O49  1  0.721576  0.734598  0.316543  1
  O  O50  1  0.723720  0.739739  0.985699  1
  O  O51  1  0.776280  0.239739  0.180968  1
  O  O52  1  0.778424  0.234598  0.850124  1
  O  O53  1  0.788720  0.221519  0.512039  1
  O  O54  1  0.782652  0.218372  0.320174  1
  O  O55  1  0.770786  0.228060  0.651175  1
  O  O56  1  0.782523  0.238369  0.985074  1
  O  O57  1  0.071326  0.513809  0.247661  1
  O  O58  1  0.069906  0.514042  0.583136  1
  O  O59  1  0.069795  0.525422  0.918851  1
