# generated using pymatgen
data_Li3Ti(CoO3)2
_symmetry_space_group_name_H-M   'P 1'
_cell_length_a   15.46854685
_cell_length_b   9.91980968
_cell_length_c   9.91980979
_cell_angle_alpha   17.24242627
_cell_angle_beta   16.56912369
_cell_angle_gamma   16.56912242
_symmetry_Int_Tables_number   1
_chemical_formula_structural   Li3Ti(CoO3)2
_chemical_formula_sum   'Li3 Ti1 Co2 O6'
_cell_volume   110.70688432
_cell_formula_units_Z   1
loop_
 _symmetry_equiv_pos_site_id
 _symmetry_equiv_pos_as_xyz
  1  'x, y, z'
loop_
 _atom_site_type_symbol
 _atom_site_label
 _atom_site_symmetry_multiplicity
 _atom_site_fract_x
 _atom_site_fract_y
 _atom_site_fract_z
 _atom_site_occupancy
  Li  Li0  1  0.166667  0.500000  0.500000  1
  Li  Li1  1  0.492256  0.504562  0.504562  1
  Li  Li2  1  0.841077  0.495438  0.495438  1
  Ti  Ti3  1  0.666667  0.000000  0.000000  1
  Co  Co4  1  0.976884  0.016350  0.016350  1
  Co  Co5  1  0.356449  0.983650  0.983650  1
  O  O6  1  0.262976  0.246728  0.246728  1
  O  O7  1  0.579767  0.255016  0.255016  1
  O  O8  1  0.070358  0.753272  0.753272  1
  O  O9  1  0.893547  0.273830  0.273830  1
  O  O10  1  0.439787  0.726170  0.726170  1
  O  O11  1  0.753567  0.744984  0.744984  1
