# generated using pymatgen
data_LiCoBO3
_symmetry_space_group_name_H-M   'P 1'
_cell_length_a   6.06634162
_cell_length_b   5.13067781
_cell_length_c   5.12748419
_cell_angle_alpha   60.33865796
_cell_angle_beta   113.46701014
_cell_angle_gamma   89.23693880
_symmetry_Int_Tables_number   1
_chemical_formula_structural   LiCoBO3
_chemical_formula_sum   'Li2 Co2 B2 O6'
_cell_volume   122.69717806
_cell_formula_units_Z   2
loop_
 _symmetry_equiv_pos_site_id
 _symmetry_equiv_pos_as_xyz
  1  'x, y, z'
loop_
 _atom_site_type_symbol
 _atom_site_label
 _atom_site_symmetry_multiplicity
 _atom_site_fract_x
 _atom_site_fract_y
 _atom_site_fract_z
 _atom_site_occupancy
  Li  Li0  1  0.669287  0.630836  0.428320  1
  Li  Li1  1  0.330713  0.369164  0.571680  1
  Co  Co2  1  0.786185  0.246059  0.167852  1
  Co  Co3  1  0.213815  0.753941  0.832148  1
  B  B4  1  0.740640  0.919988  0.815465  1
  B  B5  1  0.259360  0.080012  0.184535  1
  O  O6  1  0.690963  0.672860  0.044628  1
  O  O7  1  0.820731  0.884300  0.609694  1
  O  O8  1  0.704091  0.205632  0.776766  1
  O  O9  1  0.295909  0.794368  0.223234  1
  O  O10  1  0.179269  0.115700  0.390306  1
  O  O11  1  0.309037  0.327140  0.955372  1
