# generated using pymatgen
data_Li2TiV3O8
_symmetry_space_group_name_H-M   'P 1'
_cell_length_a   8.35539147
_cell_length_b   8.52062274
_cell_length_c   8.50524319
_cell_angle_alpha   89.99872408
_cell_angle_beta   90.00145185
_cell_angle_gamma   90.00148274
_symmetry_Int_Tables_number   1
_chemical_formula_structural   Li2TiV3O8
_chemical_formula_sum   'Li8 Ti4 V12 O32'
_cell_volume   605.51495665
_cell_formula_units_Z   4
loop_
 _symmetry_equiv_pos_site_id
 _symmetry_equiv_pos_as_xyz
  1  'x, y, z'
loop_
 _atom_site_type_symbol
 _atom_site_label
 _atom_site_symmetry_multiplicity
 _atom_site_fract_x
 _atom_site_fract_y
 _atom_site_fract_z
 _atom_site_occupancy
  Li  Li0  1  0.000945  0.999276  0.000414  1
  Li  Li1  1  0.245878  0.248144  0.246953  1
  Li  Li2  1  0.254165  0.751757  0.746876  1
  Li  Li3  1  0.499067  0.000663  0.500426  1
  Li  Li4  1  0.500952  0.500743  0.999597  1
  Li  Li5  1  0.745920  0.251847  0.753084  1
  Li  Li6  1  0.754093  0.748214  0.253096  1
  Li  Li7  1  0.999073  0.499270  0.499612  1
  Ti  Ti8  1  0.130187  0.872122  0.375998  1
  Ti  Ti9  1  0.369791  0.127921  0.876074  1
  Ti  Ti10  1  0.630228  0.627934  0.623973  1
  Ti  Ti11  1  0.869723  0.372090  0.123911  1
  V  V12  1  0.118233  0.123779  0.622926  1
  V  V13  1  0.121813  0.374105  0.871615  1
  V  V14  1  0.123799  0.625856  0.123760  1
  V  V15  1  0.376102  0.374137  0.623694  1
  V  V16  1  0.378232  0.625820  0.371522  1
  V  V17  1  0.381847  0.876169  0.122902  1
  V  V18  1  0.618169  0.376223  0.377096  1
  V  V19  1  0.621772  0.125879  0.128432  1
  V  V20  1  0.623829  0.874115  0.876328  1
  V  V21  1  0.876066  0.125842  0.376216  1
  V  V22  1  0.878308  0.874208  0.628480  1
  V  V23  1  0.881876  0.623880  0.877080  1
  O  O24  1  0.117460  0.111411  0.388460  1
  O  O25  1  0.121235  0.888034  0.608093  1
  O  O26  1  0.104656  0.619240  0.878268  1
  O  O27  1  0.137053  0.130859  0.859814  1
  O  O28  1  0.106903  0.389219  0.112076  1
  O  O29  1  0.132979  0.357920  0.635664  1
  O  O30  1  0.136474  0.642582  0.367059  1
  O  O31  1  0.143165  0.865999  0.139112  1
  O  O32  1  0.356785  0.133990  0.639114  1
  O  O33  1  0.363540  0.357406  0.867093  1
  O  O34  1  0.366971  0.642034  0.135532  1
  O  O35  1  0.393040  0.610786  0.611951  1
  O  O36  1  0.362990  0.869049  0.359755  1
  O  O37  1  0.395405  0.380739  0.378260  1
  O  O38  1  0.378916  0.112047  0.108051  1
  O  O39  1  0.382413  0.888483  0.888578  1
  O  O40  1  0.617524  0.388576  0.611490  1
  O  O41  1  0.621119  0.612054  0.391933  1
  O  O42  1  0.604598  0.880785  0.121801  1
  O  O43  1  0.637007  0.369115  0.140200  1
  O  O44  1  0.606961  0.110759  0.887966  1
  O  O45  1  0.632951  0.142048  0.364385  1
  O  O46  1  0.636505  0.857438  0.633002  1
  O  O47  1  0.643234  0.634000  0.860875  1
  O  O48  1  0.856744  0.366009  0.360887  1
  O  O49  1  0.863486  0.142591  0.132872  1
  O  O50  1  0.867028  0.857992  0.864476  1
  O  O51  1  0.893054  0.889147  0.388066  1
  O  O52  1  0.863031  0.631006  0.640217  1
  O  O53  1  0.895401  0.119318  0.621645  1
  O  O54  1  0.878927  0.387997  0.891938  1
  O  O55  1  0.882382  0.611513  0.111439  1
