# generated using pymatgen
data_LiCr(PO3)5
_symmetry_space_group_name_H-M   'P 1'
_cell_length_a   10.26466160
_cell_length_b   13.61028868
_cell_length_c   8.99530218
_cell_angle_alpha   90.00000000
_cell_angle_beta   100.83914600
_cell_angle_gamma   90.00000000
_symmetry_Int_Tables_number   1
_chemical_formula_structural   LiCr(PO3)5
_chemical_formula_sum   'Li4 Cr4 P20 O60'
_cell_volume   1234.26817234
_cell_formula_units_Z   4
loop_
 _symmetry_equiv_pos_site_id
 _symmetry_equiv_pos_as_xyz
  1  'x, y, z'
loop_
 _atom_site_type_symbol
 _atom_site_label
 _atom_site_symmetry_multiplicity
 _atom_site_fract_x
 _atom_site_fract_y
 _atom_site_fract_z
 _atom_site_occupancy
  Li  Li0  1  0.026722  0.389957  0.089099  1
  Li  Li1  1  0.473278  0.610043  0.910901  1
  Li  Li2  1  0.973278  0.889957  0.910901  1
  Li  Li3  1  0.526722  0.110043  0.089099  1
  Cr  Cr4  1  0.250000  0.000000  0.500000  1
  Cr  Cr5  1  0.750000  0.500000  0.500000  1
  Cr  Cr6  1  0.750000  0.000000  0.500000  1
  Cr  Cr7  1  0.250000  0.500000  0.500000  1
  P  P8  1  0.500061  0.858948  0.480133  1
  P  P9  1  0.771788  0.250987  0.003685  1
  P  P10  1  0.502807  0.141034  0.521941  1
  P  P11  1  0.728212  0.749013  0.996315  1
  P  P12  1  -0.000061  0.141052  0.519867  1
  P  P13  1  0.499939  0.358948  0.519867  1
  P  P14  1  0.676074  0.082230  0.814862  1
  P  P15  1  0.271788  0.249013  0.003685  1
  P  P16  1  0.323926  0.582230  0.185138  1
  P  P17  1  0.837178  0.573532  0.193215  1
  P  P18  1  0.337178  0.926468  0.193215  1
  P  P19  1  0.002807  0.358966  0.521941  1
  P  P20  1  0.662822  0.426468  0.806785  1
  P  P21  1  0.000061  0.641052  0.480133  1
  P  P22  1  0.823926  0.917770  0.185138  1
  P  P23  1  0.162822  0.073532  0.806785  1
  P  P24  1  0.997193  0.858966  0.478059  1
  P  P25  1  0.497193  0.641034  0.478059  1
  P  P26  1  0.228212  0.750987  0.996315  1
  P  P27  1  0.176074  0.417770  0.814862  1
  O  O28  1  0.976606  0.749934  0.534355  1
  O  O29  1  0.854778  0.377644  0.498168  1
  O  O30  1  0.249203  0.021089  0.708518  1
  O  O31  1  0.852663  0.124895  0.497493  1
  O  O32  1  0.245741  0.484008  0.719499  1
  O  O33  1  0.145222  0.877644  0.501832  1
  O  O34  1  0.098826  0.764210  0.887799  1
  O  O35  1  0.754259  0.984008  0.280501  1
  O  O36  1  0.081071  0.073895  0.439557  1
  O  O37  1  0.063972  0.354023  0.697584  1
  O  O38  1  0.783111  0.167273  0.878733  1
  O  O39  1  0.750797  0.521089  0.291482  1
  O  O40  1  0.095165  0.008209  0.898847  1
  O  O41  1  0.645222  0.622356  0.501832  1
  O  O42  1  0.581071  0.426105  0.439557  1
  O  O43  1  0.940915  0.644321  0.302392  1
  O  O44  1  0.418929  0.926105  0.560443  1
  O  O45  1  0.760525  0.348152  0.896565  1
  O  O46  1  0.440915  0.855679  0.302392  1
  O  O47  1  0.476606  0.750066  0.534355  1
  O  O48  1  0.889269  0.959383  0.066446  1
  O  O49  1  0.419699  0.575042  0.564723  1
  O  O50  1  0.354778  0.122356  0.498168  1
  O  O51  1  0.919699  0.924958  0.564723  1
  O  O52  1  0.848283  0.765321  0.926347  1
  O  O53  1  0.239475  0.848152  0.103435  1
  O  O54  1  0.250797  0.978911  0.291482  1
  O  O55  1  0.080301  0.424958  0.435277  1
  O  O56  1  0.436028  0.645977  0.302416  1
  O  O57  1  0.651717  0.234679  0.073653  1
  O  O58  1  0.559085  0.355679  0.697608  1
  O  O59  1  0.110731  0.459383  0.933554  1
  O  O60  1  0.610731  0.040617  0.933554  1
  O  O61  1  0.745741  0.015992  0.719499  1
  O  O62  1  0.739475  0.651848  0.103435  1
  O  O63  1  0.901174  0.264210  0.112201  1
  O  O64  1  0.647337  0.875105  0.502507  1
  O  O65  1  0.716889  0.832727  0.121267  1
  O  O66  1  0.904835  0.508209  0.101153  1
  O  O67  1  0.389269  0.540617  0.066446  1
  O  O68  1  0.147337  0.624895  0.502507  1
  O  O69  1  0.523394  0.250066  0.465645  1
  O  O70  1  0.580301  0.075042  0.435277  1
  O  O71  1  0.283111  0.332726  0.878733  1
  O  O72  1  0.595165  0.491791  0.898847  1
  O  O73  1  0.023394  0.249934  0.465645  1
  O  O74  1  0.254259  0.515992  0.280501  1
  O  O75  1  0.598826  0.735790  0.887799  1
  O  O76  1  0.151717  0.265321  0.073653  1
  O  O77  1  0.216889  0.667273  0.121267  1
  O  O78  1  0.260525  0.151848  0.896565  1
  O  O79  1  0.749203  0.478911  0.708518  1
  O  O80  1  0.348283  0.734679  0.926347  1
  O  O81  1  0.936028  0.854023  0.302416  1
  O  O82  1  0.401174  0.235790  0.112201  1
  O  O83  1  0.059085  0.144321  0.697608  1
  O  O84  1  0.563972  0.145977  0.697584  1
  O  O85  1  0.352663  0.375105  0.497493  1
  O  O86  1  0.918929  0.573895  0.560443  1
  O  O87  1  0.404835  0.991791  0.101153  1
