# generated using pymatgen
data_Li5Cr2Ni5O12
_symmetry_space_group_name_H-M   'P 1'
_cell_length_a   5.11569173
_cell_length_b   5.11569130
_cell_length_c   9.77111046
_cell_angle_alpha   84.65273990
_cell_angle_beta   95.34726319
_cell_angle_gamma   58.70955766
_symmetry_Int_Tables_number   1
_chemical_formula_structural   Li5Cr2Ni5O12
_chemical_formula_sum   'Li5 Cr2 Ni5 O12'
_cell_volume   214.53339512
_cell_formula_units_Z   1
loop_
 _symmetry_equiv_pos_site_id
 _symmetry_equiv_pos_as_xyz
  1  'x, y, z'
loop_
 _atom_site_type_symbol
 _atom_site_label
 _atom_site_symmetry_multiplicity
 _atom_site_fract_x
 _atom_site_fract_y
 _atom_site_fract_z
 _atom_site_occupancy
  Li  Li0  1  0.170365  0.670625  0.502042  1
  Li  Li1  1  0.327699  0.829400  0.996919  1
  Li  Li2  1  0.670625  0.170365  0.997958  1
  Li  Li3  1  0.829400  0.327699  0.503081  1
  Li  Li4  1  0.918865  0.918865  0.750000  1
  Cr  Cr5  1  0.256742  0.256742  0.750000  1
  Cr  Cr6  1  0.749058  0.749058  0.250000  1
  Ni  Ni7  1  0.081621  0.081621  0.250000  1
  Ni  Ni8  1  0.997107  0.507635  0.996511  1
  Ni  Ni9  1  0.507635  0.997107  0.503489  1
  Ni  Ni10  1  0.418549  0.418549  0.250000  1
  Ni  Ni11  1  0.584035  0.584035  0.750000  1
  O  O12  1  0.951326  0.239838  0.864982  1
  O  O13  1  0.239838  0.951326  0.635018  1
  O  O14  1  0.112971  0.386478  0.366181  1
  O  O15  1  0.386478  0.112971  0.133819  1
  O  O16  1  0.293564  0.521372  0.866796  1
  O  O17  1  0.521372  0.293564  0.633204  1
  O  O18  1  0.476813  0.712520  0.369111  1
  O  O19  1  0.712520  0.476813  0.130889  1
  O  O20  1  0.594904  0.886575  0.866317  1
  O  O21  1  0.886575  0.594904  0.633683  1
  O  O22  1  0.788360  0.023577  0.370301  1
  O  O23  1  0.023577  0.788360  0.129699  1
