# generated using pymatgen
data_Co6P7O24
_symmetry_space_group_name_H-M   'P 1'
_cell_length_a   5.26233248
_cell_length_b   26.54635742
_cell_length_c   6.42372977
_cell_angle_alpha   90.00000000
_cell_angle_beta   106.87607675
_cell_angle_gamma   90.00000000
_symmetry_Int_Tables_number   1
_chemical_formula_structural   Co6P7O24
_chemical_formula_sum   'Co12 P14 O48'
_cell_volume   858.72255327
_cell_formula_units_Z   2
loop_
 _symmetry_equiv_pos_site_id
 _symmetry_equiv_pos_as_xyz
  1  'x, y, z'
loop_
 _atom_site_type_symbol
 _atom_site_label
 _atom_site_symmetry_multiplicity
 _atom_site_fract_x
 _atom_site_fract_y
 _atom_site_fract_z
 _atom_site_occupancy
  Co  Co0  1  0.121908  0.685843  0.283147  1
  Co  Co1  1  0.793962  0.598853  0.911709  1
  Co  Co2  1  0.182603  0.953989  0.685305  1
  Co  Co3  1  0.878092  0.185843  0.716853  1
  Co  Co4  1  0.793962  0.901147  0.911709  1
  Co  Co5  1  0.206038  0.401147  0.088291  1
  Co  Co6  1  0.206038  0.098853  0.088291  1
  Co  Co7  1  0.817397  0.046011  0.314695  1
  Co  Co8  1  0.817397  0.453989  0.314695  1
  Co  Co9  1  0.121908  0.814157  0.283147  1
  Co  Co10  1  0.878092  0.314157  0.716853  1
  Co  Co11  1  0.182603  0.546011  0.685305  1
  P  P12  1  0.710965  0.476655  0.795756  1
  P  P13  1  0.247098  0.667597  0.806507  1
  P  P14  1  0.320480  0.389590  0.616407  1
  P  P15  1  0.289035  0.976655  0.204244  1
  P  P16  1  0.247098  0.832403  0.806507  1
  P  P17  1  0.289035  0.523345  0.204244  1
  P  P18  1  0.679520  0.610410  0.383593  1
  P  P19  1  0.710965  0.023345  0.795756  1
  P  P20  1  0.539750  0.750000  0.097487  1
  P  P21  1  0.460250  0.250000  0.902513  1
  P  P22  1  0.752902  0.167597  0.193493  1
  P  P23  1  0.320480  0.110410  0.616407  1
  P  P24  1  0.679520  0.889590  0.383593  1
  P  P25  1  0.752902  0.332403  0.193493  1
  O  O26  1  0.527374  0.149361  0.615557  1
  O  O27  1  0.864857  0.020477  0.627157  1
  O  O28  1  0.117801  0.692540  0.590952  1
  O  O29  1  0.117801  0.807460  0.590952  1
  O  O30  1  0.506299  0.202760  0.058984  1
  O  O31  1  0.604063  0.382006  0.207382  1
  O  O32  1  0.061892  0.837079  0.953721  1
  O  O33  1  0.334496  0.750000  0.224153  1
  O  O34  1  0.527374  0.350639  0.615557  1
  O  O35  1  0.878584  0.047856  0.009028  1
  O  O36  1  0.061892  0.662921  0.953721  1
  O  O37  1  0.135143  0.979523  0.372843  1
  O  O38  1  0.864857  0.479523  0.627157  1
  O  O39  1  0.583935  0.972675  0.828870  1
  O  O40  1  0.416065  0.472675  0.171130  1
  O  O41  1  0.546772  0.557466  0.293036  1
  O  O42  1  0.135143  0.520477  0.372843  1
  O  O43  1  0.167006  0.250000  0.780979  1
  O  O44  1  0.858273  0.904434  0.611339  1
  O  O45  1  0.850705  0.623481  0.231996  1
  O  O46  1  0.882199  0.307460  0.409048  1
  O  O47  1  0.665504  0.250000  0.775847  1
  O  O48  1  0.493701  0.797240  0.941016  1
  O  O49  1  0.149295  0.123481  0.768004  1
  O  O50  1  0.472626  0.649361  0.384443  1
  O  O51  1  0.546772  0.942534  0.293036  1
  O  O52  1  0.453228  0.442534  0.706964  1
  O  O53  1  0.878584  0.452144  0.009028  1
  O  O54  1  0.583935  0.527325  0.828870  1
  O  O55  1  0.395937  0.882006  0.792618  1
  O  O56  1  0.493701  0.702760  0.941016  1
  O  O57  1  0.604063  0.117994  0.207382  1
  O  O58  1  0.938108  0.337079  0.046279  1
  O  O59  1  0.938108  0.162921  0.046279  1
  O  O60  1  0.141727  0.404434  0.388661  1
  O  O61  1  0.416065  0.027325  0.171130  1
  O  O62  1  0.395937  0.617994  0.792618  1
  O  O63  1  0.882199  0.192540  0.409048  1
  O  O64  1  0.121416  0.547856  0.990972  1
  O  O65  1  0.506299  0.297240  0.058984  1
  O  O66  1  0.121416  0.952144  0.990972  1
  O  O67  1  0.832994  0.750000  0.219021  1
  O  O68  1  0.472626  0.850639  0.384443  1
  O  O69  1  0.149295  0.376519  0.768004  1
  O  O70  1  0.453228  0.057466  0.706964  1
  O  O71  1  0.858273  0.595566  0.611339  1
  O  O72  1  0.850705  0.876519  0.231996  1
  O  O73  1  0.141727  0.095566  0.388661  1
