# generated using pymatgen
data_Li2Mn3(FeO4)3
_symmetry_space_group_name_H-M   'P 1'
_cell_length_a   6.06183407
_cell_length_b   7.98117708
_cell_length_c   5.10997589
_cell_angle_alpha   77.45674092
_cell_angle_beta   73.38974247
_cell_angle_gamma   76.07642203
_symmetry_Int_Tables_number   1
_chemical_formula_structural   Li2Mn3(FeO4)3
_chemical_formula_sum   'Li2 Mn3 Fe3 O12'
_cell_volume   227.00105467
_cell_formula_units_Z   1
loop_
 _symmetry_equiv_pos_site_id
 _symmetry_equiv_pos_as_xyz
  1  'x, y, z'
loop_
 _atom_site_type_symbol
 _atom_site_label
 _atom_site_symmetry_multiplicity
 _atom_site_fract_x
 _atom_site_fract_y
 _atom_site_fract_z
 _atom_site_occupancy
  Li  Li0  1  0.166667  0.833333  0.500000  1
  Li  Li1  1  0.666667  0.333333  0.000000  1
  Mn  Mn2  1  0.829376  0.666237  0.002314  1
  Mn  Mn3  1  0.503957  0.000430  0.997686  1
  Mn  Mn4  1  0.166667  0.333333  0.000000  1
  Fe  Fe5  1  0.666667  0.833333  0.500000  1
  Fe  Fe6  1  0.334838  0.169945  0.502485  1
  Fe  Fe7  1  0.998495  0.496722  0.497515  1
  O  O8  1  0.805603  0.891278  0.761526  1
  O  O9  1  0.954140  0.737584  0.273362  1
  O  O10  1  0.693887  0.606299  0.748712  1
  O  O11  1  0.379193  0.929083  0.726638  1
  O  O12  1  0.861149  0.433323  0.214529  1
  O  O13  1  0.527730  0.775389  0.238474  1
  O  O14  1  0.472184  0.233343  0.785471  1
  O  O15  1  0.127466  0.571000  0.779370  1
  O  O16  1  0.639447  0.060368  0.251288  1
  O  O17  1  0.306694  0.397475  0.247220  1
  O  O18  1  0.026639  0.269192  0.752780  1
  O  O19  1  0.205868  0.095667  0.220630  1
