# generated using pymatgen
data_Li3CoSiO5
_symmetry_space_group_name_H-M   'P 1'
_cell_length_a   4.94860013
_cell_length_b   5.45885313
_cell_length_c   15.70261763
_cell_angle_alpha   90.00000000
_cell_angle_beta   90.00000000
_cell_angle_gamma   90.00000000
_symmetry_Int_Tables_number   1
_chemical_formula_structural   Li3CoSiO5
_chemical_formula_sum   'Li12 Co4 Si4 O20'
_cell_volume   424.18550837
_cell_formula_units_Z   4
loop_
 _symmetry_equiv_pos_site_id
 _symmetry_equiv_pos_as_xyz
  1  'x, y, z'
loop_
 _atom_site_type_symbol
 _atom_site_label
 _atom_site_symmetry_multiplicity
 _atom_site_fract_x
 _atom_site_fract_y
 _atom_site_fract_z
 _atom_site_occupancy
  Li  Li0  1  0.998481  0.669059  0.593454  1
  Li  Li1  1  0.998481  0.169059  0.906546  1
  Li  Li2  1  0.500538  0.337386  0.994672  1
  Li  Li3  1  0.500538  0.837386  0.505328  1
  Li  Li4  1  0.506322  0.329804  0.803531  1
  Li  Li5  1  0.506322  0.829804  0.696469  1
  Li  Li6  1  0.498481  0.330941  0.406546  1
  Li  Li7  1  0.498481  0.830941  0.093454  1
  Li  Li8  1  0.000538  0.662614  0.005328  1
  Li  Li9  1  0.000538  0.162614  0.494672  1
  Li  Li10  1  0.006322  0.170196  0.303531  1
  Li  Li11  1  0.006322  0.670196  0.196469  1
  Co  Co12  1  0.999678  0.178257  0.698952  1
  Co  Co13  1  0.999678  0.678257  0.801048  1
  Co  Co14  1  0.499678  0.321743  0.198952  1
  Co  Co15  1  0.499678  0.821743  0.301048  1
  Si  Si16  1  0.007205  0.161300  0.097875  1
  Si  Si17  1  0.007205  0.661300  0.402125  1
  Si  Si18  1  0.507205  0.338700  0.597875  1
  Si  Si19  1  0.507205  0.838700  0.902125  1
  O  O20  1  0.092799  0.349347  0.797571  1
  O  O21  1  0.092799  0.849347  0.702429  1
  O  O22  1  0.102451  0.376792  0.398145  1
  O  O23  1  0.102451  0.876792  0.101855  1
  O  O24  1  0.103264  0.312749  0.014635  1
  O  O25  1  0.103264  0.812749  0.485365  1
  O  O26  1  0.116499  0.307044  0.187106  1
  O  O27  1  0.116499  0.807044  0.312894  1
  O  O28  1  0.167763  0.326933  0.605131  1
  O  O29  1  0.167763  0.826933  0.894869  1
  O  O30  1  0.592799  0.650653  0.202429  1
  O  O31  1  0.592799  0.150653  0.297571  1
  O  O32  1  0.602451  0.623208  0.601855  1
  O  O33  1  0.602451  0.123208  0.898145  1
  O  O34  1  0.603264  0.187251  0.514635  1
  O  O35  1  0.603264  0.687251  0.985365  1
  O  O36  1  0.616499  0.192956  0.687106  1
  O  O37  1  0.616499  0.692956  0.812894  1
  O  O38  1  0.667763  0.173067  0.105131  1
  O  O39  1  0.667763  0.673067  0.394869  1
