# generated using pymatgen
data_Li4Fe5Sb(PO4)6
_symmetry_space_group_name_H-M   'P 1'
_cell_length_a   8.37422032
_cell_length_b   9.10042053
_cell_length_c   9.10907915
_cell_angle_alpha   60.10033496
_cell_angle_beta   58.24185055
_cell_angle_gamma   58.06545751
_symmetry_Int_Tables_number   1
_chemical_formula_structural   Li4Fe5Sb(PO4)6
_chemical_formula_sum   'Li4 Fe5 Sb1 P6 O24'
_cell_volume   477.05691218
_cell_formula_units_Z   1
loop_
 _symmetry_equiv_pos_site_id
 _symmetry_equiv_pos_as_xyz
  1  'x, y, z'
loop_
 _atom_site_type_symbol
 _atom_site_label
 _atom_site_symmetry_multiplicity
 _atom_site_fract_x
 _atom_site_fract_y
 _atom_site_fract_z
 _atom_site_occupancy
  Li  Li0  1  0.240310  0.861066  0.647367  1
  Li  Li1  1  0.764140  0.161368  0.354219  1
  Li  Li2  1  0.758927  0.721278  0.159025  1
  Li  Li3  1  0.766318  0.359105  0.715495  1
  Fe  Fe4  1  0.009738  0.998597  0.002224  1
  Fe  Fe5  1  0.050913  0.646767  0.651584  1
  Fe  Fe6  1  0.496813  0.495938  0.499238  1
  Fe  Fe7  1  0.442267  0.850344  0.851520  1
  Fe  Fe8  1  0.974034  0.341969  0.339732  1
  Sb  Sb9  1  0.520698  0.164314  0.157877  1
  P  P10  1  0.255174  0.252459  0.568338  1
  P  P11  1  0.252660  0.925169  0.251134  1
  P  P12  1  0.252706  0.566960  0.927218  1
  P  P13  1  0.739344  0.456201  0.053012  1
  P  P14  1  0.753213  0.050660  0.750119  1
  P  P15  1  0.728463  0.755121  0.454625  1
  O  O16  1  0.080342  0.093459  0.310873  1
  O  O17  1  0.077967  0.515360  0.092939  1
  O  O18  1  0.078879  0.315659  0.511729  1
  O  O19  1  0.221996  0.098660  0.749825  1
  O  O20  1  0.466502  0.189901  0.423584  1
  O  O21  1  0.259171  0.411646  0.588078  1
  O  O22  1  0.214491  0.916497  0.108226  1
  O  O23  1  0.258193  0.747777  0.418160  1
  O  O24  1  0.546760  0.600710  0.024569  1
  O  O25  1  0.263188  0.588329  0.740033  1
  O  O26  1  0.769854  0.254642  0.077582  1
  O  O27  1  0.574038  0.004812  0.817416  1
  O  O28  1  0.465455  0.927160  0.181780  1
  O  O29  1  0.216343  0.760718  0.909279  1
  O  O30  1  0.732779  0.432152  0.240397  1
  O  O31  1  0.464350  0.423890  0.928417  1
  O  O32  1  0.734648  0.238964  0.595084  1
  O  O33  1  0.772713  0.082047  0.899825  1
  O  O34  1  0.729736  0.594302  0.429984  1
  O  O35  1  0.523414  0.827481  0.591973  1
  O  O36  1  0.768203  0.900230  0.256179  1
  O  O37  1  0.897686  0.695322  0.517157  1
  O  O38  1  0.924184  0.498530  0.893885  1
  O  O39  1  0.953385  0.897435  0.687300  1
