# generated using pymatgen
data_Ca9Co(PO4)7
_symmetry_space_group_name_H-M   'P 1'
_cell_length_a   13.81825797
_cell_length_b   13.81825797
_cell_length_c   13.81825815
_cell_angle_alpha   44.49778921
_cell_angle_beta   44.49778921
_cell_angle_gamma   44.49778626
_symmetry_Int_Tables_number   1
_chemical_formula_structural   Ca9Co(PO4)7
_chemical_formula_sum   'Ca18 Co2 P14 O56'
_cell_volume   1178.46511454
_cell_formula_units_Z   2
loop_
 _symmetry_equiv_pos_site_id
 _symmetry_equiv_pos_as_xyz
  1  'x, y, z'
loop_
 _atom_site_type_symbol
 _atom_site_label
 _atom_site_symmetry_multiplicity
 _atom_site_fract_x
 _atom_site_fract_y
 _atom_site_fract_z
 _atom_site_occupancy
  Ca  Ca0  1  0.064430  0.653975  0.079614  1
  Ca  Ca1  1  0.352151  0.908691  0.933998  1
  Ca  Ca2  1  0.408691  0.852151  0.433998  1
  Ca  Ca3  1  0.550373  0.972194  0.952382  1
  Ca  Ca4  1  0.153975  0.564430  0.579614  1
  Ca  Ca5  1  0.050373  0.452382  0.472194  1
  Ca  Ca6  1  0.908691  0.933998  0.352151  1
  Ca  Ca7  1  0.452382  0.472194  0.050373  1
  Ca  Ca8  1  0.564430  0.579614  0.153975  1
  Ca  Ca9  1  0.079614  0.064430  0.653975  1
  Ca  Ca10  1  0.972194  0.952382  0.550373  1
  Ca  Ca11  1  0.433998  0.408691  0.852151  1
  Ca  Ca12  1  0.952382  0.550373  0.972194  1
  Ca  Ca13  1  0.852151  0.433998  0.408691  1
  Ca  Ca14  1  0.472194  0.050373  0.452382  1
  Ca  Ca15  1  0.579614  0.153975  0.564430  1
  Ca  Ca16  1  0.653975  0.079614  0.064430  1
  Ca  Ca17  1  0.933998  0.352151  0.908691  1
  Co  Co18  1  0.000293  0.000293  0.000293  1
  Co  Co19  1  0.500293  0.500293  0.500293  1
  P  P20  1  0.278107  0.819998  0.311397  1
  P  P21  1  0.188079  0.684362  0.720143  1
  P  P22  1  0.184362  0.688079  0.220143  1
  P  P23  1  0.319998  0.778107  0.811397  1
  P  P24  1  0.684362  0.720143  0.188079  1
  P  P25  1  0.778107  0.811397  0.319998  1
  P  P26  1  0.271758  0.271758  0.271758  1
  P  P27  1  0.771758  0.771758  0.771758  1
  P  P28  1  0.311397  0.278107  0.819998  1
  P  P29  1  0.220143  0.184362  0.688079  1
  P  P30  1  0.688079  0.220143  0.184362  1
  P  P31  1  0.811397  0.319998  0.778107  1
  P  P32  1  0.819998  0.311397  0.278107  1
  P  P33  1  0.720143  0.188079  0.684362  1
  O  O34  1  0.112444  0.866924  0.132151  1
  O  O35  1  0.136793  0.851964  0.666816  1
  O  O36  1  0.139924  0.876667  0.882071  1
  O  O37  1  0.118039  0.833386  0.385631  1
  O  O38  1  0.261977  0.902774  0.360073  1
  O  O39  1  0.114689  0.675809  0.681664  1
  O  O40  1  0.089499  0.647842  0.392858  1
  O  O41  1  0.357975  0.869894  0.138320  1
  O  O42  1  0.369894  0.857975  0.638320  1
  O  O43  1  0.147842  0.589499  0.892858  1
  O  O44  1  0.175809  0.614689  0.181664  1
  O  O45  1  0.107109  0.387916  0.282123  1
  O  O46  1  0.402774  0.761977  0.860073  1
  O  O47  1  0.607109  0.782123  0.887916  1
  O  O48  1  0.589499  0.892858  0.147842  1
  O  O49  1  0.618039  0.885631  0.333386  1
  O  O50  1  0.333386  0.618039  0.885631  1
  O  O51  1  0.376667  0.639924  0.382071  1
  O  O52  1  0.351964  0.636793  0.166816  1
  O  O53  1  0.366924  0.612444  0.632151  1
  O  O54  1  0.138320  0.357975  0.869894  1
  O  O55  1  0.166816  0.351964  0.636793  1
  O  O56  1  0.761977  0.860073  0.402774  1
  O  O57  1  0.782123  0.887916  0.607109  1
  O  O58  1  0.612444  0.632151  0.366924  1
  O  O59  1  0.675809  0.681664  0.114689  1
  O  O60  1  0.876667  0.882071  0.139924  1
  O  O61  1  0.313465  0.313465  0.313465  1
  O  O62  1  0.813465  0.813465  0.813465  1
  O  O63  1  0.382071  0.376667  0.639924  1
  O  O64  1  0.181664  0.175809  0.614689  1
  O  O65  1  0.132151  0.112444  0.866924  1
  O  O66  1  0.387916  0.282123  0.107109  1
  O  O67  1  0.360073  0.261977  0.902774  1
  O  O68  1  0.851964  0.666816  0.136793  1
  O  O69  1  0.857975  0.638320  0.369894  1
  O  O70  1  0.647842  0.392858  0.089499  1
  O  O71  1  0.638320  0.369894  0.857975  1
  O  O72  1  0.639924  0.382071  0.376667  1
  O  O73  1  0.632151  0.366924  0.612444  1
  O  O74  1  0.385631  0.118039  0.833386  1
  O  O75  1  0.392858  0.089499  0.647842  1
  O  O76  1  0.282123  0.107109  0.387916  1
  O  O77  1  0.887916  0.607109  0.782123  1
  O  O78  1  0.614689  0.181664  0.175809  1
  O  O79  1  0.860073  0.402774  0.761977  1
  O  O80  1  0.833386  0.385631  0.118039  1
  O  O81  1  0.636793  0.166816  0.351964  1
  O  O82  1  0.666816  0.136793  0.851964  1
  O  O83  1  0.885631  0.333386  0.618039  1
  O  O84  1  0.902774  0.360073  0.261977  1
  O  O85  1  0.681664  0.114689  0.675809  1
  O  O86  1  0.866924  0.132151  0.112444  1
  O  O87  1  0.882071  0.139924  0.876667  1
  O  O88  1  0.869894  0.138320  0.357975  1
  O  O89  1  0.892858  0.147842  0.589499  1
