# generated using pymatgen
data_LiVSiO4
_symmetry_space_group_name_H-M   'P 1'
_cell_length_a   4.96980170
_cell_length_b   4.96980170
_cell_length_c   6.26470126
_cell_angle_alpha   90.00000000
_cell_angle_beta   90.00000000
_cell_angle_gamma   67.10081150
_symmetry_Int_Tables_number   1
_chemical_formula_structural   LiVSiO4
_chemical_formula_sum   'Li2 V2 Si2 O8'
_cell_volume   142.53717035
_cell_formula_units_Z   2
loop_
 _symmetry_equiv_pos_site_id
 _symmetry_equiv_pos_as_xyz
  1  'x, y, z'
loop_
 _atom_site_type_symbol
 _atom_site_label
 _atom_site_symmetry_multiplicity
 _atom_site_fract_x
 _atom_site_fract_y
 _atom_site_fract_z
 _atom_site_occupancy
  Li  Li0  1  0.328421  0.328421  0.250000  1
  Li  Li1  1  0.671579  0.671579  0.750000  1
  V  V2  1  0.000000  0.000000  0.000000  1
  V  V3  1  0.000000  0.000000  0.500000  1
  Si  Si4  1  0.348227  0.348227  0.750000  1
  Si  Si5  1  0.651773  0.651773  0.250000  1
  O  O6  1  0.286459  0.767898  0.250000  1
  O  O7  1  0.232102  0.713541  0.750000  1
  O  O8  1  0.763102  0.763102  0.035861  1
  O  O9  1  0.236898  0.236898  0.535861  1
  O  O10  1  0.763102  0.763102  0.464139  1
  O  O11  1  0.236898  0.236898  0.964139  1
  O  O12  1  0.713541  0.232102  0.750000  1
  O  O13  1  0.767898  0.286459  0.250000  1
