# generated using pymatgen
data_V3OF11
_symmetry_space_group_name_H-M   'P 1'
_cell_length_a   5.45794285
_cell_length_b   5.26240131
_cell_length_c   14.89432450
_cell_angle_alpha   90.00000000
_cell_angle_beta   100.21868963
_cell_angle_gamma   90.00000000
_symmetry_Int_Tables_number   1
_chemical_formula_structural   V3OF11
_chemical_formula_sum   'V6 O2 F22'
_cell_volume   421.00734104
_cell_formula_units_Z   2
loop_
 _symmetry_equiv_pos_site_id
 _symmetry_equiv_pos_as_xyz
  1  'x, y, z'
loop_
 _atom_site_type_symbol
 _atom_site_label
 _atom_site_symmetry_multiplicity
 _atom_site_fract_x
 _atom_site_fract_y
 _atom_site_fract_z
 _atom_site_occupancy
  V  V0  1  0.039643  0.975388  0.003008  1
  V  V1  1  0.166610  0.499844  0.333295  1
  V  V2  1  0.322939  0.992107  0.667495  1
  V  V3  1  0.510395  0.492107  0.999171  1
  V  V4  1  0.666723  0.999844  0.333372  1
  V  V5  1  0.793690  0.475388  0.663658  1
  O  O6  1  0.542484  0.294438  0.644687  1
  O  O7  1  0.290849  0.794438  0.021979  1
  F  F8  1  0.023875  0.209731  0.642263  1
  F  F9  1  0.196372  0.286678  0.976139  1
  F  F10  1  0.138895  0.706897  0.689934  1
  F  F11  1  0.031253  0.092385  0.113935  1
  F  F12  1  0.208561  0.414306  0.449756  1
  F  F13  1  0.381166  0.087821  0.783272  1
  F  F14  1  0.125580  0.587075  0.216994  1
  F  F15  1  0.296080  0.924023  0.549777  1
  F  F16  1  0.452167  0.587821  0.883395  1
  F  F17  1  0.356280  0.197974  0.308723  1
  F  F18  1  0.694438  0.206897  0.976732  1
  F  F19  1  0.477053  0.697974  0.357944  1
  F  F20  1  0.636962  0.786678  0.690528  1
  F  F21  1  0.537254  0.424023  0.116889  1
  F  F22  1  0.707753  0.087075  0.449672  1
  F  F23  1  0.894224  0.429295  0.782135  1
  F  F24  1  0.624773  0.914306  0.216911  1
  F  F25  1  0.802080  0.592385  0.552731  1
  F  F26  1  0.939109  0.929295  0.884532  1
  F  F27  1  0.856611  0.302036  0.308861  1
  F  F28  1  0.809458  0.709731  0.024404  1
  F  F29  1  0.976722  0.802036  0.357806  1
