# generated using pymatgen
data_Li2VCrO4
_symmetry_space_group_name_H-M   'P 1'
_cell_length_a   5.96142792
_cell_length_b   5.92519276
_cell_length_c   5.96320800
_cell_angle_alpha   119.45260164
_cell_angle_beta   120.27098817
_cell_angle_gamma   60.57302371
_symmetry_Int_Tables_number   1
_chemical_formula_structural   Li2VCrO4
_chemical_formula_sum   'Li4 V2 Cr2 O8'
_cell_volume   149.87586607
_cell_formula_units_Z   2
loop_
 _symmetry_equiv_pos_site_id
 _symmetry_equiv_pos_as_xyz
  1  'x, y, z'
loop_
 _atom_site_type_symbol
 _atom_site_label
 _atom_site_symmetry_multiplicity
 _atom_site_fract_x
 _atom_site_fract_y
 _atom_site_fract_z
 _atom_site_occupancy
  Li  Li0  1  0.500037  0.500010  0.500031  1
  Li  Li1  1  0.499994  0.500001  0.000005  1
  Li  Li2  1  0.000038  0.499976  0.000006  1
  Li  Li3  1  0.500017  0.999952  0.999984  1
  V  V4  1  0.999965  0.500101  0.500055  1
  V  V5  1  0.999964  -0.000006  0.500055  1
  Cr  Cr6  1  0.500069  0.999959  0.500029  1
  Cr  Cr7  1  -0.000097  -0.000013  -0.000164  1
  O  O8  1  0.753501  0.762754  0.746296  1
  O  O9  1  0.226906  0.756624  0.748055  1
  O  O10  1  0.751987  0.756473  0.273108  1
  O  O11  1  0.238708  0.774630  0.261072  1
  O  O12  1  0.761316  0.225333  0.738931  1
  O  O13  1  0.247984  0.243541  0.726872  1
  O  O14  1  0.773057  0.243387  0.251928  1
  O  O15  1  0.246536  0.237295  0.253741  1
