# generated using pymatgen
data_Li5V2Fe3O10
_symmetry_space_group_name_H-M   'P 1'
_cell_length_a   5.16595031
_cell_length_b   5.21108393
_cell_length_c   7.88753240
_cell_angle_alpha   109.92046606
_cell_angle_beta   102.70176588
_cell_angle_gamma   99.62090473
_symmetry_Int_Tables_number   1
_chemical_formula_structural   Li5V2Fe3O10
_chemical_formula_sum   'Li5 V2 Fe3 O10'
_cell_volume   187.83990726
_cell_formula_units_Z   1
loop_
 _symmetry_equiv_pos_site_id
 _symmetry_equiv_pos_as_xyz
  1  'x, y, z'
loop_
 _atom_site_type_symbol
 _atom_site_label
 _atom_site_symmetry_multiplicity
 _atom_site_fract_x
 _atom_site_fract_y
 _atom_site_fract_z
 _atom_site_occupancy
  Li  Li0  1  0.220862  0.909882  0.406660  1
  Li  Li1  1  0.393239  0.292004  0.785317  1
  Li  Li2  1  0.500000  0.500000  0.500000  1
  Li  Li3  1  0.606761  0.707996  0.214683  1
  Li  Li4  1  0.779138  0.090119  0.593340  1
  V  V5  1  0.089843  0.695128  0.680961  1
  V  V6  1  0.910157  0.304872  0.319039  1
  Fe  Fe7  1  0.000000  0.500000  0.000000  1
  Fe  Fe8  1  0.692333  0.894929  0.891063  1
  Fe  Fe9  1  0.307667  0.105071  0.108937  1
  O  O10  1  0.046832  0.078740  0.851788  1
  O  O11  1  0.343963  0.715422  0.935461  1
  O  O12  1  0.137344  0.306660  0.542770  1
  O  O13  1  0.229377  0.479139  0.243542  1
  O  O14  1  0.441580  0.891146  0.659958  1
  O  O15  1  0.558420  0.108854  0.340042  1
  O  O16  1  0.770623  0.520861  0.756458  1
  O  O17  1  0.862656  0.693340  0.457230  1
  O  O18  1  0.656037  0.284578  0.064539  1
  O  O19  1  0.953168  0.921260  0.148212  1
