# generated using pymatgen
data_Li4VGa3O8
_symmetry_space_group_name_H-M   'P 1'
_cell_length_a   5.52476077
_cell_length_b   6.48463268
_cell_length_c   5.09538955
_cell_angle_alpha   89.94434838
_cell_angle_beta   89.95703507
_cell_angle_gamma   90.01826713
_symmetry_Int_Tables_number   1
_chemical_formula_structural   Li4VGa3O8
_chemical_formula_sum   'Li4 V1 Ga3 O8'
_cell_volume   182.54750453
_cell_formula_units_Z   1
loop_
 _symmetry_equiv_pos_site_id
 _symmetry_equiv_pos_as_xyz
  1  'x, y, z'
loop_
 _atom_site_type_symbol
 _atom_site_label
 _atom_site_symmetry_multiplicity
 _atom_site_fract_x
 _atom_site_fract_y
 _atom_site_fract_z
 _atom_site_occupancy
  Li  Li0  1  0.081877  0.624821  0.503089  1
  Li  Li1  1  0.419477  0.124163  0.003288  1
  Li  Li2  1  0.583395  0.874016  0.503281  1
  Li  Li3  1  0.916288  0.376600  0.003192  1
  V  V4  1  0.083612  0.127695  0.502744  1
  Ga  Ga5  1  0.417583  0.626579  0.999323  1
  Ga  Ga6  1  0.582447  0.377153  0.499740  1
  Ga  Ga7  1  0.916319  0.870556  0.998094  1
  O  O8  1  0.067770  0.110321  0.119689  1
  O  O9  1  0.093825  0.637967  0.108136  1
  O  O10  1  0.418467  0.138763  0.608418  1
  O  O11  1  0.427987  0.612502  0.630822  1
  O  O12  1  0.567973  0.388884  0.131035  1
  O  O13  1  0.592562  0.860589  0.107746  1
  O  O14  1  0.903543  0.368548  0.608732  1
  O  O15  1  0.926878  0.880845  0.630272  1
