# generated using pymatgen
data_Nb4VO12
_symmetry_space_group_name_H-M   'P 1'
_cell_length_a   5.65434177
_cell_length_b   11.30889553
_cell_length_c   10.02552844
_cell_angle_alpha   27.19745842
_cell_angle_beta   50.54449475
_cell_angle_gamma   55.50756355
_symmetry_Int_Tables_number   1
_chemical_formula_structural   Nb4VO12
_chemical_formula_sum   'Nb4 V1 O12'
_cell_volume   226.23672678
_cell_formula_units_Z   1
loop_
 _symmetry_equiv_pos_site_id
 _symmetry_equiv_pos_as_xyz
  1  'x, y, z'
loop_
 _atom_site_type_symbol
 _atom_site_label
 _atom_site_symmetry_multiplicity
 _atom_site_fract_x
 _atom_site_fract_y
 _atom_site_fract_z
 _atom_site_occupancy
  Nb  Nb0  1  0.024470  0.018865  0.963620  1
  Nb  Nb1  1  0.963377  0.495692  0.013616  1
  Nb  Nb2  1  0.502104  0.996927  0.505231  1
  Nb  Nb3  1  0.515918  0.512467  0.466238  1
  V  V4  1  0.320439  0.985999  0.295252  1
  O  O5  1  0.320343  0.267318  0.153193  1
  O  O6  1  0.235257  0.114172  0.615665  1
  O  O7  1  0.123180  0.309193  0.731841  1
  O  O8  1  0.890050  0.170140  0.235928  1
  O  O9  1  0.332743  0.801144  0.136798  1
  O  O10  1  0.737751  0.388029  0.350235  1
  O  O11  1  0.230554  0.675829  0.564035  1
  O  O12  1  0.563632  0.188669  0.885112  1
  O  O13  1  0.146413  0.800187  0.717033  1
  O  O14  1  0.834568  0.696154  0.236965  1
  O  O15  1  0.698752  0.903432  0.328893  1
  O  O16  1  0.619749  0.675782  0.859646  1
