# generated using pymatgen
data_VOF3
_symmetry_space_group_name_H-M   'P 1'
_cell_length_a   5.35970653
_cell_length_b   5.35987423
_cell_length_c   9.21232963
_cell_angle_alpha   90.00000000
_cell_angle_beta   90.00000000
_cell_angle_gamma   89.99948656
_symmetry_Int_Tables_number   1
_chemical_formula_structural   VOF3
_chemical_formula_sum   'V4 O4 F12'
_cell_volume   264.64584440
_cell_formula_units_Z   4
loop_
 _symmetry_equiv_pos_site_id
 _symmetry_equiv_pos_as_xyz
  1  'x, y, z'
loop_
 _atom_site_type_symbol
 _atom_site_label
 _atom_site_symmetry_multiplicity
 _atom_site_fract_x
 _atom_site_fract_y
 _atom_site_fract_z
 _atom_site_occupancy
  V  V0  1  0.110326  0.420644  0.502092  1
  V  V1  1  0.420676  0.889613  0.252091  1
  V  V2  1  0.579324  0.110387  0.752091  1
  V  V3  1  0.889674  0.579356  0.002092  1
  O  O4  1  0.074808  0.671837  0.589996  1
  O  O5  1  0.328162  0.074852  0.839974  1
  O  O6  1  0.671838  0.925148  0.339974  1
  O  O7  1  0.925192  0.328163  0.089996  1
  F  F8  1  0.051596  0.797208  0.123174  1
  F  F9  1  0.145565  0.573752  0.881579  1
  F  F10  1  0.202860  0.051631  0.373193  1
  F  F11  1  0.313962  0.569501  0.344434  1
  F  F12  1  0.426312  0.145548  0.131604  1
  F  F13  1  0.430490  0.314012  0.594444  1
  F  F14  1  0.569510  0.685988  0.094444  1
  F  F15  1  0.573688  0.854452  0.631604  1
  F  F16  1  0.686038  0.430499  0.844434  1
  F  F17  1  0.797140  0.948369  0.873193  1
  F  F18  1  0.854435  0.426248  0.381579  1
  F  F19  1  0.948404  0.202792  0.623174  1
