# generated using pymatgen
data_Ti3Cr3(SbO8)2
_symmetry_space_group_name_H-M   'P 1'
_cell_length_a   5.95356652
_cell_length_b   5.98476745
_cell_length_c   9.33923426
_cell_angle_alpha   90.11041180
_cell_angle_beta   90.04578600
_cell_angle_gamma   119.96745518
_symmetry_Int_Tables_number   1
_chemical_formula_structural   Ti3Cr3(SbO8)2
_chemical_formula_sum   'Ti3 Cr3 Sb2 O16'
_cell_volume   288.27502425
_cell_formula_units_Z   1
loop_
 _symmetry_equiv_pos_site_id
 _symmetry_equiv_pos_as_xyz
  1  'x, y, z'
loop_
 _atom_site_type_symbol
 _atom_site_label
 _atom_site_symmetry_multiplicity
 _atom_site_fract_x
 _atom_site_fract_y
 _atom_site_fract_z
 _atom_site_occupancy
  Ti  Ti0  1  0.166597  0.831697  0.211977  1
  Ti  Ti1  1  0.165193  0.335220  0.212775  1
  Ti  Ti2  1  0.334814  0.174977  0.700096  1
  Cr  Cr3  1  0.657014  0.829215  0.208936  1
  Cr  Cr4  1  0.830354  0.659502  0.710473  1
  Cr  Cr5  1  0.821433  0.160249  0.720424  1
  Sb  Sb6  1  0.341868  0.673977  0.489956  1
  Sb  Sb7  1  0.671458  0.337385  0.988756  1
  O  O8  1  0.177991  0.837661  0.603013  1
  O  O9  1  0.045008  0.524196  0.341585  1
  O  O10  1  0.316278  0.657950  0.104425  1
  O  O11  1  0.004544  0.003112  0.304145  1
  O  O12  1  0.997156  0.005030  0.801150  1
  O  O13  1  0.174317  0.343989  0.602851  1
  O  O14  1  0.473146  0.956477  0.339356  1
  O  O15  1  0.473349  0.519199  0.340298  1
  O  O16  1  0.347985  0.173931  0.106321  1
  O  O17  1  0.667463  0.834796  0.601092  1
  O  O18  1  0.515430  0.467217  0.839132  1
  O  O19  1  0.524563  0.043163  0.839041  1
  O  O20  1  0.664654  0.320526  0.606914  1
  O  O21  1  0.836440  0.662283  0.101641  1
  O  O22  1  0.957129  0.472579  0.838656  1
  O  O23  1  0.835816  0.175871  0.102706  1
