# generated using pymatgen
data_Li3MnFeCo(PO4)3
_symmetry_space_group_name_H-M   'P 1'
_cell_length_a   10.47267205
_cell_length_b   6.08500444
_cell_length_c   14.29319941
_cell_angle_alpha   90.00000000
_cell_angle_beta   90.00000000
_cell_angle_gamma   90.00000000
_symmetry_Int_Tables_number   1
_chemical_formula_structural   Li3MnFeCo(PO4)3
_chemical_formula_sum   'Li12 Mn4 Fe4 Co4 P12 O48'
_cell_volume   910.85208356
_cell_formula_units_Z   4
loop_
 _symmetry_equiv_pos_site_id
 _symmetry_equiv_pos_as_xyz
  1  'x, y, z'
loop_
 _atom_site_type_symbol
 _atom_site_label
 _atom_site_symmetry_multiplicity
 _atom_site_fract_x
 _atom_site_fract_y
 _atom_site_fract_z
 _atom_site_occupancy
  Li  Li0  1  0.998970  0.998785  0.000685  1
  Li  Li1  1  0.001156  0.001013  0.333050  1
  Li  Li2  1  0.999516  0.999404  0.666488  1
  Li  Li3  1  0.998970  0.501215  0.000685  1
  Li  Li4  1  0.001156  0.498987  0.333050  1
  Li  Li5  1  0.999516  0.500596  0.666488  1
  Li  Li6  1  0.500484  0.000596  0.166488  1
  Li  Li7  1  0.501030  0.001215  0.500685  1
  Li  Li8  1  0.498844  0.998987  0.833050  1
  Li  Li9  1  0.500484  0.499404  0.166488  1
  Li  Li10  1  0.501030  0.498785  0.500685  1
  Li  Li11  1  0.498844  0.501013  0.833050  1
  Mn  Mn12  1  0.218368  0.750000  0.493840  1
  Mn  Mn13  1  0.281632  0.250000  0.993840  1
  Mn  Mn14  1  0.719316  0.750000  0.340291  1
  Mn  Mn15  1  0.780684  0.250000  0.840291  1
  Fe  Fe16  1  0.219906  0.750000  0.825180  1
  Fe  Fe17  1  0.280094  0.250000  0.325180  1
  Fe  Fe18  1  0.718079  0.750000  0.674182  1
  Fe  Fe19  1  0.781921  0.250000  0.174182  1
  Co  Co20  1  0.220566  0.750000  0.158888  1
  Co  Co21  1  0.279434  0.250000  0.658888  1
  Co  Co22  1  0.721560  0.750000  0.006984  1
  Co  Co23  1  0.778440  0.250000  0.506984  1
  P  P24  1  0.093490  0.250000  0.140814  1
  P  P25  1  0.093782  0.250000  0.471903  1
  P  P26  1  0.095607  0.250000  0.805217  1
  P  P27  1  0.404393  0.750000  0.305217  1
  P  P28  1  0.406510  0.750000  0.640814  1
  P  P29  1  0.406218  0.750000  0.971904  1
  P  P30  1  0.596109  0.250000  0.028169  1
  P  P31  1  0.594297  0.250000  0.361680  1
  P  P32  1  0.592803  0.250000  0.692528  1
  P  P33  1  0.907197  0.750000  0.192528  1
  P  P34  1  0.903891  0.750000  0.528169  1
  P  P35  1  0.905703  0.750000  0.861680  1
  O  O36  1  0.044633  0.750000  0.233553  1
  O  O37  1  0.041161  0.750000  0.570589  1
  O  O38  1  0.044522  0.750000  0.901046  1
  O  O39  1  0.096431  0.250000  0.247946  1
  O  O40  1  0.100990  0.250000  0.579602  1
  O  O41  1  0.096430  0.250000  0.912537  1
  O  O42  1  0.163826  0.045398  0.096827  1
  O  O43  1  0.163625  0.047999  0.426246  1
  O  O44  1  0.167687  0.047779  0.761222  1
  O  O45  1  0.163826  0.454602  0.096827  1
  O  O46  1  0.163625  0.452001  0.426246  1
  O  O47  1  0.167687  0.452221  0.761222  1
  O  O48  1  0.332313  0.547779  0.261222  1
  O  O49  1  0.336174  0.545398  0.596827  1
  O  O50  1  0.336375  0.547999  0.926246  1
  O  O51  1  0.332313  0.952221  0.261222  1
  O  O52  1  0.336174  0.954602  0.596827  1
  O  O53  1  0.336375  0.952001  0.926246  1
  O  O54  1  0.399010  0.750000  0.079602  1
  O  O55  1  0.403570  0.750000  0.412537  1
  O  O56  1  0.403569  0.750000  0.747946  1
  O  O57  1  0.458839  0.250000  0.070589  1
  O  O58  1  0.455478  0.250000  0.401046  1
  O  O59  1  0.455367  0.250000  0.733553  1
  O  O60  1  0.540981  0.750000  0.262852  1
  O  O61  1  0.543412  0.750000  0.598602  1
  O  O62  1  0.544794  0.750000  0.933218  1
  O  O63  1  0.598801  0.250000  0.254130  1
  O  O64  1  0.597615  0.250000  0.584970  1
  O  O65  1  0.596370  0.250000  0.920720  1
  O  O66  1  0.666571  0.045898  0.071714  1
  O  O67  1  0.664393  0.048496  0.407202  1
  O  O68  1  0.663605  0.047045  0.736847  1
  O  O69  1  0.666571  0.454102  0.071714  1
  O  O70  1  0.664393  0.451504  0.407202  1
  O  O71  1  0.663605  0.452955  0.736847  1
  O  O72  1  0.836395  0.547045  0.236847  1
  O  O73  1  0.833429  0.545898  0.571714  1
  O  O74  1  0.835607  0.548496  0.907202  1
  O  O75  1  0.836395  0.952955  0.236847  1
  O  O76  1  0.833429  0.954102  0.571714  1
  O  O77  1  0.835607  0.951504  0.907202  1
  O  O78  1  0.902385  0.750000  0.084970  1
  O  O79  1  0.903630  0.750000  0.420720  1
  O  O80  1  0.901199  0.750000  0.754130  1
  O  O81  1  0.956588  0.250000  0.098602  1
  O  O82  1  0.955206  0.250000  0.433218  1
  O  O83  1  0.959019  0.250000  0.762852  1
