# generated using pymatgen
data_Co3SnO8
_symmetry_space_group_name_H-M   'P 1'
_cell_length_a   5.67630658
_cell_length_b   5.67464716
_cell_length_c   9.39117031
_cell_angle_alpha   89.99472454
_cell_angle_beta   90.00263923
_cell_angle_gamma   119.99033048
_symmetry_Int_Tables_number   1
_chemical_formula_structural   Co3SnO8
_chemical_formula_sum   'Co6 Sn2 O16'
_cell_volume   261.99762918
_cell_formula_units_Z   2
loop_
 _symmetry_equiv_pos_site_id
 _symmetry_equiv_pos_as_xyz
  1  'x, y, z'
loop_
 _atom_site_type_symbol
 _atom_site_label
 _atom_site_symmetry_multiplicity
 _atom_site_fract_x
 _atom_site_fract_y
 _atom_site_fract_z
 _atom_site_occupancy
  Co  Co0  1  0.166942  0.831830  0.212811  1
  Co  Co1  1  0.168191  0.335092  0.212855  1
  Co  Co2  1  0.665009  0.833147  0.212810  1
  Co  Co3  1  0.334991  0.168138  0.712810  1
  Co  Co4  1  0.833058  0.664890  0.712812  1
  Co  Co5  1  0.831809  0.166900  0.712855  1
  Sn  Sn6  1  0.333381  0.666713  0.491473  1
  Sn  Sn7  1  0.666619  0.333331  0.991473  1
  O  O8  1  0.156667  0.843561  0.609077  1
  O  O9  1  0.032091  0.515565  0.325341  1
  O  O10  1  0.333439  0.666689  0.109012  1
  O  O11  1  0.000013  0.999968  0.315973  1
  O  O12  1  -0.000013  0.999955  0.815973  1
  O  O13  1  0.156386  0.312998  0.609028  1
  O  O14  1  0.483443  0.967901  0.325237  1
  O  O15  1  0.484361  0.516624  0.325274  1
  O  O16  1  0.312938  0.156444  0.108968  1
  O  O17  1  0.687062  0.843506  0.608968  1
  O  O18  1  0.516557  0.484458  0.825237  1
  O  O19  1  0.515639  0.032262  0.825274  1
  O  O20  1  0.666561  0.333249  0.609012  1
  O  O21  1  0.843333  0.686895  0.109077  1
  O  O22  1  0.967909  0.483474  0.825341  1
  O  O23  1  0.843614  0.156611  0.109028  1
