# generated using pymatgen
data_LiV4CuO12
_symmetry_space_group_name_H-M   'P 1'
_cell_length_a   6.70401755
_cell_length_b   6.70401775
_cell_length_c   5.91961222
_cell_angle_alpha   74.72989179
_cell_angle_beta   105.27011571
_cell_angle_gamma   96.33116560
_symmetry_Int_Tables_number   1
_chemical_formula_structural   LiV4CuO12
_chemical_formula_sum   'Li1 V4 Cu1 O12'
_cell_volume   247.35660051
_cell_formula_units_Z   1
loop_
 _symmetry_equiv_pos_site_id
 _symmetry_equiv_pos_as_xyz
  1  'x, y, z'
loop_
 _atom_site_type_symbol
 _atom_site_label
 _atom_site_symmetry_multiplicity
 _atom_site_fract_x
 _atom_site_fract_y
 _atom_site_fract_z
 _atom_site_occupancy
  Li  Li0  1  0.088625  0.088625  0.750000  1
  V  V1  1  0.199334  0.616064  0.751265  1
  V  V2  1  0.388863  0.792523  0.265093  1
  V  V3  1  0.616064  0.199334  0.748735  1
  V  V4  1  0.792523  0.388863  0.234907  1
  Cu  Cu5  1  0.913741  0.913741  0.250000  1
  O  O6  1  0.025188  0.808653  0.607601  1
  O  O7  1  0.078892  0.384268  0.775553  1
  O  O8  1  0.199384  0.968482  0.175201  1
  O  O9  1  0.369336  0.634844  0.554215  1
  O  O10  1  0.384268  0.078892  0.724447  1
  O  O11  1  0.346380  0.639902  0.050211  1
  O  O12  1  0.634844  0.369336  0.945785  1
  O  O13  1  0.627427  0.918093  0.287691  1
  O  O14  1  0.639902  0.346380  0.449789  1
  O  O15  1  0.808653  0.025188  0.892399  1
  O  O16  1  0.918093  0.627427  0.212309  1
  O  O17  1  0.968482  0.199384  0.324799  1
