# generated using pymatgen
data_Li6Ni5(P2O7)4
_symmetry_space_group_name_H-M   'P 1'
_cell_length_a   12.69642893
_cell_length_b   9.03962512
_cell_length_c   10.51652522
_cell_angle_alpha   65.25787563
_cell_angle_beta   87.26219170
_cell_angle_gamma   73.83872686
_symmetry_Int_Tables_number   1
_chemical_formula_structural   Li6Ni5(P2O7)4
_chemical_formula_sum   'Li12 Ni10 P16 O56'
_cell_volume   1049.59826165
_cell_formula_units_Z   2
loop_
 _symmetry_equiv_pos_site_id
 _symmetry_equiv_pos_as_xyz
  1  'x, y, z'
loop_
 _atom_site_type_symbol
 _atom_site_label
 _atom_site_symmetry_multiplicity
 _atom_site_fract_x
 _atom_site_fract_y
 _atom_site_fract_z
 _atom_site_occupancy
  Li  Li0  1  0.088426  0.862801  0.597838  1
  Li  Li1  1  0.979055  0.184054  0.004412  1
  Li  Li2  1  0.203920  0.107504  0.853605  1
  Li  Li3  1  0.250000  0.500000  0.500000  1
  Li  Li4  1  0.914293  0.134926  0.404020  1
  Li  Li5  1  0.705946  0.121780  0.845902  1
  Li  Li6  1  0.794054  0.878220  0.154098  1
  Li  Li7  1  0.520945  0.815946  0.995588  1
  Li  Li8  1  0.750000  0.500000  0.500000  1
  Li  Li9  1  0.585707  0.865074  0.595980  1
  Li  Li10  1  0.296080  0.892496  0.146395  1
  Li  Li11  1  0.411574  0.137199  0.402162  1
  Ni  Ni12  1  0.361218  0.898417  0.714813  1
  Ni  Ni13  1  0.639309  0.102468  0.286627  1
  Ni  Ni14  1  0.316163  0.507452  0.758148  1
  Ni  Ni15  1  0.682690  0.498062  0.240313  1
  Ni  Ni16  1  0.817310  0.501938  0.759687  1
  Ni  Ni17  1  0.489386  0.189540  0.009434  1
  Ni  Ni18  1  0.860691  0.897532  0.713373  1
  Ni  Ni19  1  0.010614  0.810460  0.990566  1
  Ni  Ni20  1  0.183837  0.492548  0.241852  1
  Ni  Ni21  1  0.138782  0.101583  0.285187  1
  P  P22  1  0.561654  0.544117  0.810743  1
  P  P23  1  0.541419  0.819915  0.292684  1
  P  P24  1  0.938346  0.455883  0.189257  1
  P  P25  1  0.040722  0.809438  0.292125  1
  P  P26  1  0.783948  0.711767  0.954818  1
  P  P27  1  0.647256  0.198520  0.547002  1
  P  P28  1  0.147855  0.193937  0.548746  1
  P  P29  1  0.352145  0.806063  0.451254  1
  P  P30  1  0.459278  0.190562  0.707875  1
  P  P31  1  0.716052  0.288233  0.045182  1
  P  P32  1  0.438354  0.450150  0.189026  1
  P  P33  1  0.061646  0.549850  0.810974  1
  P  P34  1  0.958581  0.180085  0.707316  1
  P  P35  1  0.278878  0.717613  0.953407  1
  P  P36  1  0.221122  0.282387  0.046593  1
  P  P37  1  0.852744  0.801480  0.452998  1
  O  O38  1  0.381606  0.910596  0.519985  1
  O  O39  1  0.125949  0.452383  0.965867  1
  O  O40  1  0.781426  0.921654  0.316341  1
  O  O41  1  0.351051  0.447677  0.294293  1
  O  O42  1  0.848579  0.471390  0.288072  1
  O  O43  1  0.980396  0.896999  0.142997  1
  O  O44  1  0.450769  0.060817  0.655049  1
  O  O45  1  0.193065  0.335939  0.449871  1
  O  O46  1  0.990793  0.271493  0.214233  1
  O  O47  1  0.038187  0.284532  0.604615  1
  O  O48  1  0.176250  0.701518  0.034556  1
  O  O49  1  0.348851  0.320825  0.691835  1
  O  O50  1  0.773310  0.721124  0.806085  1
  O  O51  1  0.270845  0.722186  0.805905  1
  O  O52  1  0.651421  0.528610  0.711928  1
  O  O53  1  0.461813  0.715468  0.395385  1
  O  O54  1  0.480999  0.439512  0.826269  1
  O  O55  1  0.318100  0.867247  0.948304  1
  O  O56  1  0.669079  0.141696  0.050024  1
  O  O57  1  0.945711  0.064653  0.640391  1
  O  O58  1  0.726690  0.278875  0.193915  1
  O  O59  1  0.229155  0.277814  0.194095  1
  O  O60  1  0.696469  0.336594  0.449646  1
  O  O61  1  0.488576  0.269681  0.194383  1
  O  O62  1  0.817998  0.294312  0.964826  1
  O  O63  1  0.049231  0.939183  0.344951  1
  O  O64  1  0.554289  0.935347  0.359609  1
  O  O65  1  0.519438  0.545454  0.188772  1
  O  O66  1  0.980562  0.454546  0.811228  1
  O  O67  1  0.279130  0.921872  0.315806  1
  O  O68  1  0.615238  0.097052  0.477138  1
  O  O69  1  0.536945  0.293400  0.598539  1
  O  O70  1  0.306935  0.664061  0.550129  1
  O  O71  1  0.850712  0.313178  0.695505  1
  O  O72  1  0.374051  0.547617  0.034133  1
  O  O73  1  0.877765  0.538035  0.032767  1
  O  O74  1  0.151149  0.679175  0.308165  1
  O  O75  1  0.220870  0.078128  0.684194  1
  O  O76  1  0.118394  0.089404  0.480015  1
  O  O77  1  0.649288  0.686822  0.304495  1
  O  O78  1  0.682002  0.705688  0.035174  1
  O  O79  1  0.509207  0.728507  0.785767  1
  O  O80  1  0.019001  0.560488  0.173731  1
  O  O81  1  0.323750  0.298482  0.965444  1
  O  O82  1  0.181900  0.132753  0.051696  1
  O  O83  1  0.803531  0.663406  0.550354  1
  O  O84  1  0.718574  0.078346  0.683659  1
  O  O85  1  0.963055  0.706600  0.401461  1
  O  O86  1  0.483592  0.924329  0.141844  1
  O  O87  1  0.148949  0.552323  0.705707  1
  O  O88  1  0.519604  0.103001  0.857003  1
  O  O89  1  0.830921  0.858304  0.949976  1
  O  O90  1  0.016408  0.075671  0.858156  1
  O  O91  1  0.011424  0.730319  0.805617  1
  O  O92  1  0.622235  0.461965  0.967233  1
  O  O93  1  0.884762  0.902948  0.522862  1
