# generated using pymatgen
data_NiPO4
_symmetry_space_group_name_H-M   'P 1'
_cell_length_a   9.94654836
_cell_length_b   10.05901102
_cell_length_c   17.16648505
_cell_angle_alpha   89.44856926
_cell_angle_beta   73.15950127
_cell_angle_gamma   60.36915915
_symmetry_Int_Tables_number   1
_chemical_formula_structural   NiPO4
_chemical_formula_sum   'Ni16 P16 O64'
_cell_volume   1410.37040038
_cell_formula_units_Z   16
loop_
 _symmetry_equiv_pos_site_id
 _symmetry_equiv_pos_as_xyz
  1  'x, y, z'
loop_
 _atom_site_type_symbol
 _atom_site_label
 _atom_site_symmetry_multiplicity
 _atom_site_fract_x
 _atom_site_fract_y
 _atom_site_fract_z
 _atom_site_occupancy
  Ni  Ni0  1  0.057913  0.442571  0.812882  1
  Ni  Ni1  1  0.062190  0.180076  0.561723  1
  Ni  Ni2  1  0.561456  0.996477  0.812429  1
  Ni  Ni3  1  0.557715  0.501734  0.812931  1
  Ni  Ni4  1  0.689052  0.185510  0.061727  1
  Ni  Ni5  1  0.696011  0.680076  0.061723  1
  Ni  Ni6  1  0.627621  0.001734  0.312931  1
  Ni  Ni7  1  0.055769  0.945267  0.814567  1
  Ni  Ni8  1  0.624164  0.123988  0.561752  1
  Ni  Ni9  1  0.129639  0.496477  0.312429  1
  Ni  Ni10  1  0.124142  0.621592  0.561655  1
  Ni  Ni11  1  0.192612  0.121592  0.061655  1
  Ni  Ni12  1  0.190096  0.623988  0.061752  1
  Ni  Ni13  1  0.186634  0.942571  0.312882  1
  Ni  Ni14  1  0.563710  0.685510  0.561727  1
  Ni  Ni15  1  0.684397  0.445267  0.314567  1
  P  P16  1  0.251109  0.183281  0.374571  1
  P  P17  1  0.317519  0.811066  0.124813  1
  P  P18  1  0.246602  0.311066  0.624813  1
  P  P19  1  0.189134  0.627576  0.874479  1
  P  P20  1  0.688770  0.372632  0.623194  1
  P  P21  1  0.308218  0.625267  0.374629  1
  P  P22  1  0.751760  0.685321  0.373729  1
  P  P23  1  0.689190  0.185321  0.873729  1
  P  P24  1  0.691039  0.683281  0.874571  1
  P  P25  1  0.190182  0.868637  0.624359  1
  P  P26  1  0.815405  0.872632  0.123194  1
  P  P27  1  0.312184  0.317146  0.124862  1
  P  P28  1  0.191886  0.125267  0.874629  1
  P  P29  1  0.816822  0.368637  0.124359  1
  P  P30  1  0.745809  0.817146  0.624862  1
  P  P31  1  0.808811  0.127576  0.374479  1
  O  O32  1  0.817338  0.274522  0.353648  1
  O  O33  1  0.976460  0.007268  0.383110  1
  O  O34  1  0.167256  0.660721  0.455102  1
  O  O35  1  0.206903  0.123943  0.455885  1
  O  O36  1  0.275704  0.562358  0.303557  1
  O  O37  1  0.199455  0.907950  0.709114  1
  O  O38  1  0.173096  0.414599  0.206115  1
  O  O39  1  0.981111  0.236897  0.131399  1
  O  O40  1  0.356452  0.819611  0.556822  1
  O  O41  1  0.554292  0.171056  0.853203  1
  O  O42  1  0.322677  0.161544  0.103926  1
  O  O43  1  0.855808  0.578986  0.803794  1
  O  O44  1  0.706190  0.914599  0.706115  1
  O  O45  1  0.150592  0.736897  0.631399  1
  O  O46  1  0.475400  0.505861  0.384009  1
  O  O47  1  0.214375  0.662635  0.954919  1
  O  O48  1  0.911853  0.661544  0.603926  1
  O  O49  1  0.775051  0.066299  0.303270  1
  O  O50  1  0.275669  0.411779  0.053452  1
  O  O51  1  0.261412  0.078986  0.303794  1
  O  O52  1  0.413759  0.156682  0.602348  1
  O  O53  1  0.683480  0.407950  0.209114  1
  O  O54  1  0.705355  0.627161  0.455292  1
  O  O55  1  0.553269  0.673808  0.854172  1
  O  O56  1  0.418751  0.173808  0.354172  1
  O  O57  1  0.183348  0.902673  0.208914  1
  O  O58  1  0.133163  0.507268  0.883110  1
  O  O59  1  0.773319  0.814888  0.054876  1
  O  O60  1  0.355381  0.566299  0.803270  1
  O  O61  1  0.676611  0.916284  0.205988  1
  O  O62  1  0.556496  0.513500  0.597181  1
  O  O63  1  0.701117  0.416284  0.705988  1
  O  O64  1  0.712192  0.127161  0.955292  1
  O  O65  1  0.055210  0.009701  0.599792  1
  O  O66  1  0.120086  0.356764  0.381330  1
  O  O67  1  0.979142  0.743865  0.132590  1
  O  O68  1  0.327210  0.656682  0.102348  1
  O  O69  1  0.054493  0.774522  0.853648  1
  O  O70  1  0.484211  0.774297  0.132215  1
  O  O71  1  0.921449  0.671056  0.353203  1
  O  O72  1  0.259323  0.410618  0.556129  1
  O  O73  1  0.205064  0.402673  0.708914  1
  O  O74  1  0.757944  0.582823  0.303624  1
  O  O75  1  0.644402  0.243865  0.632590  1
  O  O76  1  0.713268  0.623943  0.955885  1
  O  O77  1  0.273931  0.910618  0.056129  1
  O  O78  1  0.641820  0.856764  0.881330  1
  O  O79  1  0.636855  0.359467  0.880704  1
  O  O80  1  0.109277  0.274297  0.632215  1
  O  O81  1  0.856917  0.314888  0.554876  1
  O  O82  1  0.317026  0.771817  0.353150  1
  O  O83  1  0.855608  0.082823  0.803624  1
  O  O84  1  0.358380  0.062358  0.803557  1
  O  O85  1  0.058006  0.271817  0.853150  1
  O  O86  1  0.609376  0.778311  0.633870  1
  O  O87  1  0.622973  0.859467  0.380704  1
  O  O88  1  0.767115  0.319611  0.056822  1
  O  O89  1  0.478443  0.278311  0.133870  1
  O  O90  1  0.134729  0.005861  0.884009  1
  O  O91  1  0.216921  0.160721  0.955102  1
  O  O92  1  0.835296  0.509701  0.099792  1
  O  O93  1  0.759100  0.911779  0.553452  1
  O  O94  1  0.668071  0.162635  0.454919  1
  O  O95  1  0.832823  0.013500  0.097181  1
