# generated using pymatgen
data_Na2Fe(Si2O5)3
_symmetry_space_group_name_H-M   'P 1'
_cell_length_a   11.32227214
_cell_length_b   11.32227214
_cell_length_c   10.22460676
_cell_angle_alpha   90.00000000
_cell_angle_beta   90.00000000
_cell_angle_gamma   77.99351919
_symmetry_Int_Tables_number   1
_chemical_formula_structural   Na2Fe(Si2O5)3
_chemical_formula_sum   'Na8 Fe4 Si24 O60'
_cell_volume   1282.05820315
_cell_formula_units_Z   4
loop_
 _symmetry_equiv_pos_site_id
 _symmetry_equiv_pos_as_xyz
  1  'x, y, z'
loop_
 _atom_site_type_symbol
 _atom_site_label
 _atom_site_symmetry_multiplicity
 _atom_site_fract_x
 _atom_site_fract_y
 _atom_site_fract_z
 _atom_site_occupancy
  Na  Na0  1  0.026119  0.526119  0.250000  1
  Na  Na1  1  0.473881  0.973881  0.750000  1
  Na  Na2  1  0.583737  0.583737  0.249142  1
  Na  Na3  1  0.083737  0.083737  0.250858  1
  Na  Na4  1  0.416263  0.416263  0.750858  1
  Na  Na5  1  0.916263  0.916263  0.749142  1
  Na  Na6  1  0.526119  0.026119  0.250000  1
  Na  Na7  1  0.973881  0.473881  0.750000  1
  Fe  Fe8  1  0.334148  0.834148  0.250000  1
  Fe  Fe9  1  0.165852  0.665852  0.750000  1
  Fe  Fe10  1  0.834148  0.334148  0.250000  1
  Fe  Fe11  1  0.665852  0.165852  0.750000  1
  Si  Si12  1  0.041503  0.814086  0.306772  1
  Si  Si13  1  0.185914  0.958497  0.693228  1
  Si  Si14  1  0.314086  0.541503  0.193228  1
  Si  Si15  1  0.458497  0.685914  0.806772  1
  Si  Si16  1  0.075765  0.302387  0.459938  1
  Si  Si17  1  0.575765  0.802387  0.040062  1
  Si  Si18  1  0.197613  0.424235  0.959938  1
  Si  Si19  1  0.697613  0.924235  0.540062  1
  Si  Si20  1  0.254395  0.480611  0.485955  1
  Si  Si21  1  0.519389  0.745605  0.514045  1
  Si  Si22  1  0.754395  0.980611  0.014045  1
  Si  Si23  1  0.019389  0.245605  0.985955  1
  Si  Si24  1  0.480611  0.254395  0.485955  1
  Si  Si25  1  0.245605  0.019389  0.985955  1
  Si  Si26  1  0.980611  0.754395  0.014045  1
  Si  Si27  1  0.745605  0.519389  0.514045  1
  Si  Si28  1  0.302387  0.075765  0.459938  1
  Si  Si29  1  0.924235  0.697613  0.540062  1
  Si  Si30  1  0.424235  0.197613  0.959938  1
  Si  Si31  1  0.802387  0.575765  0.040062  1
  Si  Si32  1  0.685914  0.458497  0.806772  1
  Si  Si33  1  0.541503  0.314086  0.193228  1
  Si  Si34  1  0.814086  0.041503  0.306772  1
  Si  Si35  1  0.958497  0.185914  0.693228  1
  O  O36  1  0.027668  0.747198  0.166060  1
  O  O37  1  0.252802  0.972332  0.833940  1
  O  O38  1  0.004489  0.718360  0.411807  1
  O  O39  1  0.281640  0.995511  0.588193  1
  O  O40  1  0.154542  0.828778  0.669524  1
  O  O41  1  0.171222  0.845458  0.330476  1
  O  O42  1  0.083914  0.752259  0.906687  1
  O  O43  1  0.247741  0.916086  0.093313  1
  O  O44  1  0.252259  0.583914  0.593313  1
  O  O45  1  0.416086  0.747741  0.406687  1
  O  O46  1  0.328778  0.654542  0.830476  1
  O  O47  1  0.345458  0.671222  0.169524  1
  O  O48  1  0.501332  0.836471  0.173241  1
  O  O49  1  0.001332  0.336471  0.326759  1
  O  O50  1  0.163529  0.498668  0.826759  1
  O  O51  1  0.663529  0.998668  0.673241  1
  O  O52  1  0.218360  0.504489  0.088193  1
  O  O53  1  0.495511  0.781640  0.911807  1
  O  O54  1  0.472332  0.752802  0.666060  1
  O  O55  1  0.247198  0.527668  0.333940  1
  O  O56  1  0.139746  0.413754  0.503410  1
  O  O57  1  0.086246  0.360254  0.003410  1
  O  O58  1  0.639746  0.913754  0.996590  1
  O  O59  1  0.586246  0.860254  0.496590  1
  O  O60  1  0.677942  0.677942  0.066351  1
  O  O61  1  0.120579  0.120579  0.010868  1
  O  O62  1  0.177942  0.177942  0.433649  1
  O  O63  1  0.056990  0.056990  0.689789  1
  O  O64  1  0.443010  0.443010  0.189789  1
  O  O65  1  0.322058  0.322058  0.933649  1
  O  O66  1  0.943010  0.943010  0.310211  1
  O  O67  1  0.379421  0.379421  0.510868  1
  O  O68  1  0.556990  0.556990  0.810211  1
  O  O69  1  0.879421  0.879421  0.989132  1
  O  O70  1  0.620579  0.620579  0.489132  1
  O  O71  1  0.822058  0.822058  0.566351  1
  O  O72  1  0.413754  0.139746  0.503410  1
  O  O73  1  0.360254  0.086246  0.003410  1
  O  O74  1  0.860254  0.586246  0.496590  1
  O  O75  1  0.913754  0.639746  0.996590  1
  O  O76  1  0.527668  0.247198  0.333940  1
  O  O77  1  0.752802  0.472332  0.666060  1
  O  O78  1  0.504489  0.218360  0.088193  1
  O  O79  1  0.781640  0.495511  0.911807  1
  O  O80  1  0.336471  0.001332  0.326759  1
  O  O81  1  0.498668  0.163529  0.826759  1
  O  O82  1  0.998668  0.663529  0.673241  1
  O  O83  1  0.836471  0.501332  0.173241  1
  O  O84  1  0.671222  0.345458  0.169524  1
  O  O85  1  0.654542  0.328778  0.830476  1
  O  O86  1  0.583914  0.252259  0.593313  1
  O  O87  1  0.747741  0.416086  0.406687  1
  O  O88  1  0.752259  0.083914  0.906687  1
  O  O89  1  0.916086  0.247741  0.093313  1
  O  O90  1  0.828778  0.154542  0.669524  1
  O  O91  1  0.845458  0.171222  0.330476  1
  O  O92  1  0.718360  0.004489  0.411807  1
  O  O93  1  0.995511  0.281640  0.588193  1
  O  O94  1  0.747198  0.027668  0.166060  1
  O  O95  1  0.972332  0.252802  0.833940  1
