# generated using pymatgen
data_LiFe3(SiO4)2
_symmetry_space_group_name_H-M   'P 1'
_cell_length_a   5.09027361
_cell_length_b   8.89627561
_cell_length_c   13.64920756
_cell_angle_alpha   109.92809268
_cell_angle_beta   79.61183344
_cell_angle_gamma   90.04412410
_symmetry_Int_Tables_number   1
_chemical_formula_structural   LiFe3(SiO4)2
_chemical_formula_sum   'Li3 Fe9 Si6 O24'
_cell_volume   570.32924306
_cell_formula_units_Z   3
loop_
 _symmetry_equiv_pos_site_id
 _symmetry_equiv_pos_as_xyz
  1  'x, y, z'
loop_
 _atom_site_type_symbol
 _atom_site_label
 _atom_site_symmetry_multiplicity
 _atom_site_fract_x
 _atom_site_fract_y
 _atom_site_fract_z
 _atom_site_occupancy
  Li  Li0  1  0.372196  0.407035  0.308102  1
  Li  Li1  1  0.489799  0.877641  0.140098  1
  Li  Li2  1  0.709016  0.661804  0.644322  1
  Fe  Fe3  1  -0.002658  0.983508  0.003724  1
  Fe  Fe4  1  0.259802  0.781852  0.512848  1
  Fe  Fe5  1  0.213863  0.553046  0.816702  1
  Fe  Fe6  1  0.288237  0.132717  0.657200  1
  Fe  Fe7  1  0.922554  0.401354  0.162049  1
  Fe  Fe8  1  0.608277  0.470023  0.959717  1
  Fe  Fe9  1  0.698194  0.067669  0.807251  1
  Fe  Fe10  1  0.872283  0.299866  0.462028  1
  Fe  Fe11  1  0.941887  0.876350  0.312780  1
  Si  Si12  1  0.031971  0.680217  0.066115  1
  Si  Si13  1  0.473365  0.195045  0.062005  1
  Si  Si14  1  0.195773  0.854561  0.747768  1
  Si  Si15  1  0.407486  0.069405  0.403468  1
  Si  Si16  1  0.814280  0.597718  0.403349  1
  Si  Si17  1  0.753861  0.350106  0.716116  1
  O  O18  1  0.002656  0.750856  0.397725  1
  O  O19  1  0.095647  0.087794  0.380618  1
  O  O20  1  0.022577  0.456401  0.407113  1
  O  O21  1  0.145000  0.773099  0.176587  1
  O  O22  1  0.021899  0.802134  0.652692  1
  O  O23  1  0.336884  0.020987  0.041750  1
  O  O24  1  0.294734  0.334240  0.163074  1
  O  O25  1  0.381894  0.002730  0.502171  1
  O  O26  1  0.532763  0.244702  0.426986  1
  O  O27  1  0.289565  0.611688  0.969593  1
  O  O28  1  0.404186  0.988665  0.730374  1
  O  O29  1  0.595294  0.937120  0.297716  1
  O  O30  1  0.427438  0.339599  0.737787  1
  O  O31  1  0.370491  0.711118  0.757908  1
  O  O32  1  0.586273  0.657420  0.510421  1
  O  O33  1  0.684163  0.527422  0.297756  1
  O  O34  1  0.772900  0.172251  0.091170  1
  O  O35  1  0.847283  0.814676  0.045649  1
  O  O36  1  0.841201  0.534661  0.074132  1
  O  O37  1  0.526351  0.240752  0.953132  1
  O  O38  1  0.855627  0.394913  0.608000  1
  O  O39  1  0.829974  0.489232  0.820398  1
  O  O40  1  0.886616  0.174495  0.702220  1
  O  O41  1  0.971384  0.950314  0.859498  1
