# generated using pymatgen
data_V4OF11
_symmetry_space_group_name_H-M   'P 1'
_cell_length_a   5.24560188
_cell_length_b   5.48888780
_cell_length_c   17.49090416
_cell_angle_alpha   91.23560101
_cell_angle_beta   99.08121700
_cell_angle_gamma   60.99846598
_symmetry_Int_Tables_number   1
_chemical_formula_structural   V4OF11
_chemical_formula_sum   'V8 O2 F22'
_cell_volume   434.05580700
_cell_formula_units_Z   2
loop_
 _symmetry_equiv_pos_site_id
 _symmetry_equiv_pos_as_xyz
  1  'x, y, z'
loop_
 _atom_site_type_symbol
 _atom_site_label
 _atom_site_symmetry_multiplicity
 _atom_site_fract_x
 _atom_site_fract_y
 _atom_site_fract_z
 _atom_site_occupancy
  V  V0  1  0.727642  0.635460  0.118348  1
  V  V1  1  0.744165  0.128222  0.624272  1
  V  V2  1  0.500000  0.250000  0.250000  1
  V  V3  1  0.500000  0.750000  0.750000  1
  V  V4  1  0.272358  0.864540  0.381652  1
  V  V5  1  0.255835  0.371778  0.875728  1
  V  V6  1  0.012981  0.992927  0.001706  1
  V  V7  1  0.987019  0.507073  0.498294  1
  O  O8  1  0.432471  0.785635  0.046368  1
  O  O9  1  0.567529  0.714365  0.453632  1
  F  F10  1  0.925726  0.835892  0.088496  1
  F  F11  1  0.977760  0.317498  0.062758  1
  F  F12  1  0.972406  0.816736  0.562848  1
  F  F13  1  0.535388  0.930274  0.189979  1
  F  F14  1  0.931084  0.034261  0.292897  1
  F  F15  1  0.921721  0.342443  0.586945  1
  F  F16  1  0.929269  0.534533  0.786326  1
  F  F17  1  0.586361  0.406747  0.163196  1
  F  F18  1  0.568992  0.912255  0.661159  1
  F  F19  1  0.464612  0.569726  0.310021  1
  F  F20  1  0.518741  0.437844  0.686721  1
  F  F21  1  0.413639  0.093253  0.336804  1
  F  F22  1  0.416892  0.292518  0.535623  1
  F  F23  1  0.431008  0.587745  0.838841  1
  F  F24  1  0.583108  0.207482  0.964377  1
  F  F25  1  0.074274  0.664108  0.411504  1
  F  F26  1  0.068916  0.465739  0.207103  1
  F  F27  1  0.070731  0.965467  0.713674  1
  F  F28  1  0.481259  0.062156  0.813279  1
  F  F29  1  0.027594  0.683264  0.937152  1
  F  F30  1  0.022240  0.182502  0.437242  1
  F  F31  1  0.078279  0.157557  0.913055  1
