# generated using pymatgen
data_Li3Cr3FeO8
_symmetry_space_group_name_H-M   'P 1'
_cell_length_a   5.98033072
_cell_length_b   5.96188262
_cell_length_c   5.97747888
_cell_angle_alpha   59.64248969
_cell_angle_beta   120.51192569
_cell_angle_gamma   120.38329776
_symmetry_Int_Tables_number   1
_chemical_formula_structural   Li3Cr3FeO8
_chemical_formula_sum   'Li3 Cr3 Fe1 O8'
_cell_volume   149.26837197
_cell_formula_units_Z   1
loop_
 _symmetry_equiv_pos_site_id
 _symmetry_equiv_pos_as_xyz
  1  'x, y, z'
loop_
 _atom_site_type_symbol
 _atom_site_label
 _atom_site_symmetry_multiplicity
 _atom_site_fract_x
 _atom_site_fract_y
 _atom_site_fract_z
 _atom_site_occupancy
  Li  Li0  1  0.499962  0.999976  0.999992  1
  Li  Li1  1  0.499954  0.499992  0.499973  1
  Li  Li2  1  0.999972  -0.000000  0.499978  1
  Cr  Cr3  1  0.499923  0.000002  0.499998  1
  Cr  Cr4  1  0.500196  0.500003  0.000018  1
  Cr  Cr5  1  0.000003  0.499982  0.500058  1
  Fe  Fe6  1  0.000018  0.000014  0.000010  1
  O  O7  1  0.733050  0.250948  0.266765  1
  O  O8  1  0.745438  0.232213  0.727359  1
  O  O9  1  0.272947  0.232281  0.254819  1
  O  O10  1  0.760064  0.743386  0.240153  1
  O  O11  1  0.239901  0.256618  0.759827  1
  O  O12  1  0.727055  0.767712  0.745164  1
  O  O13  1  0.254542  0.767805  0.272638  1
  O  O14  1  0.266978  0.749066  0.733248  1
