# generated using pymatgen
data_Li6FeCo3(PO4)6
_symmetry_space_group_name_H-M   'P 1'
_cell_length_a   8.43590637
_cell_length_b   8.50614748
_cell_length_c   8.50531719
_cell_angle_alpha   62.16938834
_cell_angle_beta   62.32957923
_cell_angle_gamma   62.26737504
_symmetry_Int_Tables_number   1
_chemical_formula_structural   Li6FeCo3(PO4)6
_chemical_formula_sum   'Li6 Fe1 Co3 P6 O24'
_cell_volume   453.28834854
_cell_formula_units_Z   1
loop_
 _symmetry_equiv_pos_site_id
 _symmetry_equiv_pos_as_xyz
  1  'x, y, z'
loop_
 _atom_site_type_symbol
 _atom_site_label
 _atom_site_symmetry_multiplicity
 _atom_site_fract_x
 _atom_site_fract_y
 _atom_site_fract_z
 _atom_site_occupancy
  Li  Li0  1  0.021106  0.004124  0.996180  1
  Li  Li1  1  0.748292  0.150656  0.350907  1
  Li  Li2  1  0.480232  0.506705  0.494720  1
  Li  Li3  1  0.263706  0.845796  0.650584  1
  Li  Li4  1  0.654158  0.268371  0.842112  1
  Li  Li5  1  0.841241  0.652695  0.263152  1
  Fe  Fe6  1  0.853985  0.853273  0.852124  1
  Co  Co7  1  0.144833  0.146382  0.138319  1
  Co  Co8  1  0.355150  0.363579  0.352264  1
  Co  Co9  1  0.648158  0.649771  0.648638  1
  P  P10  1  0.049774  0.750976  0.447801  1
  P  P11  1  0.448259  0.051053  0.748097  1
  P  P12  1  0.750574  0.450989  0.047417  1
  P  P13  1  0.250485  0.542102  0.957508  1
  P  P14  1  0.543450  0.961311  0.250819  1
  P  P15  1  0.955602  0.249809  0.538358  1
  O  O16  1  0.127969  0.299239  0.491887  1
  O  O17  1  0.313667  0.502017  0.118298  1
  O  O18  1  0.046737  0.919751  0.265089  1
  O  O19  1  0.529551  0.118471  0.303251  1
  O  O20  1  0.239919  0.593291  0.430035  1
  O  O21  1  0.013579  0.809079  0.612131  1
  O  O22  1  0.258061  0.071267  0.904819  1
  O  O23  1  0.454741  0.232625  0.577534  1
  O  O24  1  0.595273  0.432776  0.241370  1
  O  O25  1  0.183627  0.384491  0.997518  1
  O  O26  1  0.095320  0.738777  0.933975  1
  O  O27  1  0.373732  0.010347  0.195586  1
  O  O28  1  0.612491  0.008557  0.811964  1
  O  O29  1  0.905847  0.256578  0.068600  1
  O  O30  1  0.814256  0.611674  0.008518  1
  O  O31  1  0.411544  0.557450  0.765198  1
  O  O32  1  0.553909  0.769380  0.413123  1
  O  O33  1  0.737458  0.928097  0.092695  1
  O  O34  1  0.971203  0.193213  0.383191  1
  O  O35  1  0.765280  0.414183  0.561640  1
  O  O36  1  0.478748  0.886969  0.690246  1
  O  O37  1  0.934841  0.092804  0.734332  1
  O  O38  1  0.687045  0.482660  0.888002  1
  O  O39  1  0.886194  0.687708  0.482998  1
