# generated using pymatgen
data_LiV6O7F5
_symmetry_space_group_name_H-M   'P 1'
_cell_length_a   5.70326524
_cell_length_b   5.72894598
_cell_length_c   7.71228906
_cell_angle_alpha   69.54504579
_cell_angle_beta   110.06354517
_cell_angle_gamma   109.76181151
_symmetry_Int_Tables_number   1
_chemical_formula_structural   LiV6O7F5
_chemical_formula_sum   'Li1 V6 O7 F5'
_cell_volume   214.84659681
_cell_formula_units_Z   1
loop_
 _symmetry_equiv_pos_site_id
 _symmetry_equiv_pos_as_xyz
  1  'x, y, z'
loop_
 _atom_site_type_symbol
 _atom_site_label
 _atom_site_symmetry_multiplicity
 _atom_site_fract_x
 _atom_site_fract_y
 _atom_site_fract_z
 _atom_site_occupancy
  Li  Li0  1  0.579539  0.913925  0.580194  1
  V  V1  1  0.294830  0.674870  0.854339  1
  V  V2  1  0.667655  0.342718  0.686916  1
  V  V3  1  0.013792  0.001054  0.493571  1
  V  V4  1  0.327721  0.651545  0.309843  1
  V  V5  1  0.678408  0.306495  0.156051  1
  V  V6  1  0.022401  0.028059  0.002439  1
  O  O7  1  0.772886  0.224371  0.966170  1
  O  O8  1  0.945843  0.646574  0.667070  1
  O  O9  1  0.374065  0.022119  0.664881  1
  O  O10  1  0.032393  0.355326  0.328726  1
  O  O11  1  0.636005  0.946046  0.346064  1
  O  O12  1  0.220958  0.781251  0.035216  1
  O  O13  1  0.316595  0.319636  0.003314  1
  F  F14  1  0.416062  0.564281  0.627140  1
  F  F15  1  0.901468  0.110579  0.698649  1
  F  F16  1  0.109132  0.894071  0.298920  1
  F  F17  1  0.569813  0.417188  0.375607  1
  F  F18  1  0.703798  0.707861  0.996575  1
