# generated using pymatgen
data_P8W3O29
_symmetry_space_group_name_H-M   'P 1'
_cell_length_a   9.93478827
_cell_length_b   9.93435717
_cell_length_c   13.81262655
_cell_angle_alpha   90.01293149
_cell_angle_beta   90.01096925
_cell_angle_gamma   60.00082148
_symmetry_Int_Tables_number   1
_chemical_formula_structural   P8W3O29
_chemical_formula_sum   'P16 W6 O58'
_cell_volume   1180.61655857
_cell_formula_units_Z   2
loop_
 _symmetry_equiv_pos_site_id
 _symmetry_equiv_pos_as_xyz
  1  'x, y, z'
loop_
 _atom_site_type_symbol
 _atom_site_label
 _atom_site_symmetry_multiplicity
 _atom_site_fract_x
 _atom_site_fract_y
 _atom_site_fract_z
 _atom_site_occupancy
  P  P0  1  0.077582  0.230096  0.347645  1
  P  P1  1  0.230178  0.077783  0.847444  1
  P  P2  1  0.077779  0.692179  0.847475  1
  P  P3  1  0.333258  0.333330  0.121150  1
  P  P4  1  0.333287  0.333321  0.621153  1
  P  P5  1  0.230190  0.692101  0.347433  1
  P  P6  1  0.307935  0.769856  0.152589  1
  P  P7  1  0.692105  0.077805  0.347453  1
  P  P8  1  0.307864  0.922263  0.652513  1
  P  P9  1  0.692094  0.230175  0.847415  1
  P  P10  1  0.769845  0.307876  0.652538  1
  P  P11  1  0.666750  0.666673  0.878815  1
  P  P12  1  0.666731  0.666689  0.378870  1
  P  P13  1  0.922356  0.307686  0.152446  1
  P  P14  1  0.769814  0.922194  0.152583  1
  P  P15  1  0.922251  0.769885  0.652485  1
  W  W16  1  0.000026  0.430346  0.749984  1
  W  W17  1  0.999986  0.569632  0.250027  1
  W  W18  1  0.430340  0.000027  0.250023  1
  W  W19  1  0.569641  0.000016  0.749995  1
  W  W20  1  0.430365  0.569673  0.749978  1
  W  W21  1  0.569666  0.430349  0.250000  1
  O  O22  1  -0.000002  0.208306  0.250009  1
  O  O23  1  0.004506  0.233237  0.063866  1
  O  O24  1  0.091940  0.251386  0.834419  1
  O  O25  1  0.208409  0.000029  0.749977  1
  O  O26  1  0.233363  0.004512  0.563733  1
  O  O27  1  0.251382  0.091912  0.334437  1
  O  O28  1  0.091504  0.380135  0.325710  1
  O  O29  1  0.186378  0.337394  0.670590  1
  O  O30  1  0.091695  0.528298  0.825616  1
  O  O31  1  0.004374  0.762150  0.563770  1
  O  O32  1  0.000004  0.791644  0.749993  1
  O  O33  1  0.091973  0.656711  0.334388  1
  O  O34  1  0.337352  0.186409  0.170616  1
  O  O35  1  0.380121  0.091677  0.825633  1
  O  O36  1  0.186361  0.476149  0.170636  1
  O  O37  1  0.333192  0.333345  0.015387  1
  O  O38  1  0.333259  0.333264  0.515375  1
  O  O39  1  0.337384  0.476193  0.670595  1
  O  O40  1  0.528239  0.091725  0.325653  1
  O  O41  1  0.476145  0.186402  0.670611  1
  O  O42  1  0.251396  0.656806  0.834388  1
  O  O43  1  0.208448  0.791586  0.249992  1
  O  O44  1  0.233371  0.762042  0.063700  1
  O  O45  1  0.237927  0.766668  0.436268  1
  O  O46  1  0.380176  0.528284  0.325652  1
  O  O47  1  0.476135  0.337435  0.170596  1
  O  O48  1  0.343230  0.748643  0.665560  1
  O  O49  1  0.528275  0.380115  0.825611  1
  O  O50  1  0.656773  0.091923  0.834404  1
  O  O51  1  0.237994  0.995485  0.936233  1
  O  O52  1  0.762043  0.004476  0.063734  1
  O  O53  1  0.791566  0.000002  0.250013  1
  O  O54  1  0.343208  0.908123  0.165603  1
  O  O55  1  0.471750  0.619901  0.174354  1
  O  O56  1  0.656789  0.251381  0.334421  1
  O  O57  1  0.523860  0.662603  0.829396  1
  O  O58  1  0.619904  0.471755  0.674362  1
  O  O59  1  0.762030  0.233371  0.563761  1
  O  O60  1  0.766631  0.237979  0.936277  1
  O  O61  1  0.791602  0.208405  0.750008  1
  O  O62  1  0.748641  0.343176  0.165584  1
  O  O63  1  0.523853  0.813627  0.329398  1
  O  O64  1  0.471734  0.908333  0.674355  1
  O  O65  1  0.662673  0.523808  0.329378  1
  O  O66  1  0.666836  0.666657  0.984616  1
  O  O67  1  0.666749  0.666719  0.484608  1
  O  O68  1  0.813634  0.523825  0.829368  1
  O  O69  1  0.619835  0.908394  0.174372  1
  O  O70  1  0.662621  0.813613  0.829386  1
  O  O71  1  0.908113  0.343217  0.665591  1
  O  O72  1  0.995554  0.237744  0.436139  1
  O  O73  1  0.908385  0.471638  0.174370  1
  O  O74  1  0.813621  0.662651  0.329407  1
  O  O75  1  0.908354  0.619912  0.674365  1
  O  O76  1  0.748603  0.908116  0.665594  1
  O  O77  1  0.766635  0.995501  0.436280  1
  O  O78  1  0.908028  0.748602  0.165606  1
  O  O79  1  0.995613  0.766650  0.936222  1
