# generated using pymatgen
data_Mn3Sn(PO4)6
_symmetry_space_group_name_H-M   'P 1'
_cell_length_a   8.62352252
_cell_length_b   8.62352239
_cell_length_c   8.62352230
_cell_angle_alpha   59.56168768
_cell_angle_beta   59.56168684
_cell_angle_gamma   59.56168447
_symmetry_Int_Tables_number   1
_chemical_formula_structural   Mn3Sn(PO4)6
_chemical_formula_sum   'Mn3 Sn1 P6 O24'
_cell_volume   448.94152155
_cell_formula_units_Z   1
loop_
 _symmetry_equiv_pos_site_id
 _symmetry_equiv_pos_as_xyz
  1  'x, y, z'
loop_
 _atom_site_type_symbol
 _atom_site_label
 _atom_site_symmetry_multiplicity
 _atom_site_fract_x
 _atom_site_fract_y
 _atom_site_fract_z
 _atom_site_occupancy
  Mn  Mn0  1  0.141535  0.141535  0.141535  1
  Mn  Mn1  1  0.357999  0.357999  0.357999  1
  Mn  Mn2  1  0.641484  0.641484  0.641484  1
  Sn  Sn3  1  0.861830  0.861830  0.861830  1
  P  P4  1  0.749766  0.456674  0.039198  1
  P  P5  1  0.039198  0.749766  0.456674  1
  P  P6  1  0.456674  0.039198  0.749766  1
  P  P7  1  0.258910  0.529042  0.965139  1
  P  P8  1  0.529042  0.965139  0.258910  1
  P  P9  1  0.965139  0.258910  0.529042  1
  O  O10  1  0.128896  0.307575  0.497251  1
  O  O11  1  0.307575  0.497251  0.128896  1
  O  O12  1  0.062501  0.918468  0.265315  1
  O  O13  1  0.497251  0.128896  0.307575  1
  O  O14  1  0.018223  0.790692  0.620074  1
  O  O15  1  0.230272  0.582651  0.428111  1
  O  O16  1  0.265315  0.062501  0.918468  1
  O  O17  1  0.428111  0.230272  0.582651  1
  O  O18  1  0.207703  0.367908  0.992782  1
  O  O19  1  0.582651  0.428111  0.230272  1
  O  O20  1  0.093622  0.720142  0.946475  1
  O  O21  1  0.367908  0.992782  0.207703  1
  O  O22  1  0.620074  0.018223  0.790692  1
  O  O23  1  0.918468  0.265315  0.062501  1
  O  O24  1  0.429283  0.546683  0.775632  1
  O  O25  1  0.790692  0.620074  0.018223  1
  O  O26  1  0.546683  0.775632  0.429283  1
  O  O27  1  0.720142  0.946475  0.093622  1
  O  O28  1  0.775632  0.429283  0.546683  1
  O  O29  1  0.992782  0.207703  0.367908  1
  O  O30  1  0.489621  0.869218  0.709327  1
  O  O31  1  0.946475  0.093622  0.720142  1
  O  O32  1  0.709327  0.489621  0.869218  1
  O  O33  1  0.869218  0.709327  0.489621  1
