# generated using pymatgen
data_LiCrP2O7
_symmetry_space_group_name_H-M   'P 1'
_cell_length_a   8.10902037
_cell_length_b   13.44956049
_cell_length_c   5.04158079
_cell_angle_alpha   90.00000000
_cell_angle_beta   90.62028925
_cell_angle_gamma   90.00000000
_symmetry_Int_Tables_number   1
_chemical_formula_structural   LiCrP2O7
_chemical_formula_sum   'Li4 Cr4 P8 O28'
_cell_volume   549.81649319
_cell_formula_units_Z   4
loop_
 _symmetry_equiv_pos_site_id
 _symmetry_equiv_pos_as_xyz
  1  'x, y, z'
loop_
 _atom_site_type_symbol
 _atom_site_label
 _atom_site_symmetry_multiplicity
 _atom_site_fract_x
 _atom_site_fract_y
 _atom_site_fract_z
 _atom_site_occupancy
  Li  Li0  1  0.643509  0.619817  0.653686  1
  Li  Li1  1  0.856491  0.119817  0.846314  1
  Li  Li2  1  0.143509  0.880183  0.153686  1
  Li  Li3  1  0.356491  0.380183  0.346314  1
  Cr  Cr4  1  0.733845  0.332133  0.707055  1
  Cr  Cr5  1  0.233845  0.167867  0.207055  1
  Cr  Cr6  1  0.266155  0.667867  0.292944  1
  Cr  Cr7  1  0.766155  0.832133  0.792945  1
  P  P8  1  0.274436  0.528824  0.792865  1
  P  P9  1  0.725564  0.471176  0.207135  1
  P  P10  1  0.460610  0.178126  0.729888  1
  P  P11  1  0.960610  0.321874  0.229888  1
  P  P12  1  0.774436  0.971176  0.292865  1
  P  P13  1  0.039390  0.678126  0.770112  1
  P  P14  1  0.539390  0.821874  0.270112  1
  P  P15  1  0.225564  0.028824  0.707135  1
  O  O16  1  0.814795  0.955693  0.594690  1
  O  O17  1  0.424273  0.215579  0.010719  1
  O  O18  1  0.368371  0.607686  0.624362  1
  O  O19  1  0.709431  0.575028  0.303387  1
  O  O20  1  0.423774  0.060295  0.730848  1
  O  O21  1  0.576226  0.939705  0.269152  1
  O  O22  1  0.131629  0.107686  0.875638  1
  O  O23  1  0.348558  0.225262  0.518744  1
  O  O24  1  0.685205  0.455693  0.905310  1
  O  O25  1  0.209431  0.924972  0.803387  1
  O  O26  1  0.076226  0.560295  0.769152  1
  O  O27  1  0.643650  0.193888  0.669766  1
  O  O28  1  0.290569  0.424972  0.696613  1
  O  O29  1  0.075727  0.715579  0.489281  1
  O  O30  1  0.314795  0.544307  0.094690  1
  O  O31  1  0.631629  0.392314  0.375638  1
  O  O32  1  0.924273  0.284421  0.510719  1
  O  O33  1  0.356350  0.806112  0.330234  1
  O  O34  1  0.868371  0.892314  0.124362  1
  O  O35  1  0.790569  0.075028  0.196613  1
  O  O36  1  0.185205  0.044307  0.405310  1
  O  O37  1  0.923774  0.439705  0.230848  1
  O  O38  1  0.143650  0.306112  0.169766  1
  O  O39  1  0.651442  0.774738  0.481256  1
  O  O40  1  0.848558  0.274738  0.018744  1
  O  O41  1  0.856350  0.693888  0.830234  1
  O  O42  1  0.151442  0.725262  0.981256  1
  O  O43  1  0.575727  0.784421  0.989281  1
