# generated using pymatgen
data_Mn3Sb(PO4)4
_symmetry_space_group_name_H-M   'P 1'
_cell_length_a   5.04097130
_cell_length_b   10.06642913
_cell_length_c   6.15350788
_cell_angle_alpha   90.00000000
_cell_angle_beta   90.00000000
_cell_angle_gamma   88.85730490
_symmetry_Int_Tables_number   1
_chemical_formula_structural   Mn3Sb(PO4)4
_chemical_formula_sum   'Mn3 Sb1 P4 O16'
_cell_volume   312.19507625
_cell_formula_units_Z   1
loop_
 _symmetry_equiv_pos_site_id
 _symmetry_equiv_pos_as_xyz
  1  'x, y, z'
loop_
 _atom_site_type_symbol
 _atom_site_label
 _atom_site_symmetry_multiplicity
 _atom_site_fract_x
 _atom_site_fract_y
 _atom_site_fract_z
 _atom_site_occupancy
  Mn  Mn0  1  0.086445  0.713747  0.750000  1
  Mn  Mn1  1  0.424512  0.209474  0.750000  1
  Mn  Mn2  1  0.585573  0.787072  0.250000  1
  Sb  Sb3  1  0.950158  0.285149  0.250000  1
  P  P4  1  0.105545  0.610900  0.250000  1
  P  P5  1  0.411032  0.088113  0.250000  1
  P  P6  1  0.583163  0.895074  0.750000  1
  P  P7  1  0.896556  0.406279  0.750000  1
  O  O8  1  0.184765  0.461515  0.250000  1
  O  O9  1  0.235117  0.680659  0.051618  1
  O  O10  1  0.235117  0.680659  0.448382  1
  O  O11  1  0.190285  0.367813  0.750000  1
  O  O12  1  0.279595  0.875743  0.750000  1
  O  O13  1  0.268258  0.162733  0.055082  1
  O  O14  1  0.268258  0.162733  0.444918  1
  O  O15  1  0.348012  0.940678  0.250000  1
  O  O16  1  0.634542  0.045060  0.750000  1
  O  O17  1  0.723662  0.827127  0.552035  1
  O  O18  1  0.723662  0.827127  0.947965  1
  O  O19  1  0.711687  0.107584  0.250000  1
  O  O20  1  0.801014  0.625715  0.250000  1
  O  O21  1  0.743448  0.340660  0.554829  1
  O  O22  1  0.743448  0.340660  0.945171  1
  O  O23  1  0.866143  0.557726  0.750000  1
