# generated using pymatgen
data_Li2FeAsCO7
_symmetry_space_group_name_H-M   'P 1'
_cell_length_a   8.67304616
_cell_length_b   6.61798256
_cell_length_c   5.13011475
_cell_angle_alpha   90.00000000
_cell_angle_beta   87.39287744
_cell_angle_gamma   90.00000000
_symmetry_Int_Tables_number   1
_chemical_formula_structural   Li2FeAsCO7
_chemical_formula_sum   'Li4 Fe2 As2 C2 O14'
_cell_volume   294.15388890
_cell_formula_units_Z   2
loop_
 _symmetry_equiv_pos_site_id
 _symmetry_equiv_pos_as_xyz
  1  'x, y, z'
loop_
 _atom_site_type_symbol
 _atom_site_label
 _atom_site_symmetry_multiplicity
 _atom_site_fract_x
 _atom_site_fract_y
 _atom_site_fract_z
 _atom_site_occupancy
  Li  Li0  1  0.209393  0.510784  0.211204  1
  Li  Li1  1  0.209393  0.989216  0.211204  1
  Li  Li2  1  0.790607  0.489216  0.788796  1
  Li  Li3  1  0.790607  0.010784  0.788796  1
  Fe  Fe4  1  0.344224  0.750000  0.787144  1
  Fe  Fe5  1  0.655776  0.250000  0.212856  1
  As  As6  1  0.421091  0.250000  0.716537  1
  As  As7  1  0.578909  0.750000  0.283463  1
  C  C8  1  0.054272  0.750000  0.736133  1
  C  C9  1  0.945728  0.250000  0.263867  1
  O  O10  1  0.090373  0.250000  0.293605  1
  O  O11  1  0.114452  0.750000  0.967130  1
  O  O12  1  0.157358  0.750000  0.538396  1
  O  O13  1  0.316908  0.046110  0.825531  1
  O  O14  1  0.316908  0.453890  0.825531  1
  O  O15  1  0.393263  0.750000  0.174125  1
  O  O16  1  0.444755  0.250000  0.379211  1
  O  O17  1  0.555245  0.750000  0.620789  1
  O  O18  1  0.606737  0.250000  0.825875  1
  O  O19  1  0.683092  0.546110  0.174469  1
  O  O20  1  0.683092  0.953890  0.174469  1
  O  O21  1  0.842642  0.250000  0.461604  1
  O  O22  1  0.885548  0.250000  0.032870  1
  O  O23  1  0.909627  0.750000  0.706395  1
