# generated using pymatgen
data_Li4FeCu3O8
_symmetry_space_group_name_H-M   'P 1'
_cell_length_a   10.23854153
_cell_length_b   10.23871885
_cell_length_c   14.49022750
_cell_angle_alpha   19.35001864
_cell_angle_beta   19.35030840
_cell_angle_gamma   33.35069808
_symmetry_Int_Tables_number   1
_chemical_formula_structural   Li4FeCu3O8
_chemical_formula_sum   'Li4 Fe1 Cu3 O8'
_cell_volume   144.42478131
_cell_formula_units_Z   1
loop_
 _symmetry_equiv_pos_site_id
 _symmetry_equiv_pos_as_xyz
  1  'x, y, z'
loop_
 _atom_site_type_symbol
 _atom_site_label
 _atom_site_symmetry_multiplicity
 _atom_site_fract_x
 _atom_site_fract_y
 _atom_site_fract_z
 _atom_site_occupancy
  Li  Li0  1  0.000000  0.000002  0.500000  1
  Li  Li1  1  0.000001  0.500002  0.500000  1
  Li  Li2  1  0.500001  0.000003  0.499999  1
  Li  Li3  1  0.499999  0.500001  0.500002  1
  Fe  Fe4  1  0.000013  0.000021  0.999965  1
  Cu  Cu5  1  -0.000005  0.499997  0.000009  1
  Cu  Cu6  1  0.499993  0.999972  0.000016  1
  Cu  Cu7  1  0.500000  0.500004  -0.000004  1
  O  O8  1  0.999904  0.999931  0.257579  1
  O  O9  1  -0.000025  0.500153  0.255761  1
  O  O10  1  0.500136  0.000005  0.255754  1
  O  O11  1  0.000095  0.000072  0.742422  1
  O  O12  1  0.499832  0.499852  0.256082  1
  O  O13  1  0.000024  0.499843  0.744246  1
  O  O14  1  0.499863  -0.000011  0.744252  1
  O  O15  1  0.500169  0.500152  0.743916  1
