# generated using pymatgen
data_LiMnVP2(O4F)2
_symmetry_space_group_name_H-M   'P 1'
_cell_length_a   5.19161788
_cell_length_b   5.26969552
_cell_length_c   7.38128354
_cell_angle_alpha   108.89418105
_cell_angle_beta   104.78982823
_cell_angle_gamma   96.99641889
_symmetry_Int_Tables_number   1
_chemical_formula_structural   LiMnVP2(O4F)2
_chemical_formula_sum   'Li1 Mn1 V1 P2 O8 F2'
_cell_volume   180.05436928
_cell_formula_units_Z   1
loop_
 _symmetry_equiv_pos_site_id
 _symmetry_equiv_pos_as_xyz
  1  'x, y, z'
loop_
 _atom_site_type_symbol
 _atom_site_label
 _atom_site_symmetry_multiplicity
 _atom_site_fract_x
 _atom_site_fract_y
 _atom_site_fract_z
 _atom_site_occupancy
  Li  Li0  1  0.921345  0.566801  0.177115  1
  Mn  Mn1  1  0.506292  0.500548  0.504202  1
  V  V2  1  0.999041  0.997469  0.993137  1
  P  P3  1  0.440629  0.117619  0.759292  1
  P  P4  1  0.555079  0.885144  0.241363  1
  O  O5  1  0.274383  0.136546  0.911418  1
  O  O6  1  0.360581  0.823598  0.603195  1
  O  O7  1  0.365085  0.328102  0.664559  1
  O  O8  1  0.241977  0.800752  0.131577  1
  O  O9  1  0.747627  0.206940  0.891877  1
  O  O10  1  0.643901  0.672861  0.335823  1
  O  O11  1  0.646929  0.182254  0.391527  1
  O  O12  1  0.719485  0.847697  0.086728  1
  F  F13  1  0.117448  0.313781  0.245821  1
  F  F14  1  0.879254  0.692364  0.750950  1
