# generated using pymatgen
data_Ti3Cr(PO4)6
_symmetry_space_group_name_H-M   'P 1'
_cell_length_a   8.79486444
_cell_length_b   8.79486402
_cell_length_c   8.79486485
_cell_angle_alpha   58.45588398
_cell_angle_beta   58.45588730
_cell_angle_gamma   58.45588179
_symmetry_Int_Tables_number   1
_chemical_formula_structural   Ti3Cr(PO4)6
_chemical_formula_sum   'Ti3 Cr1 P6 O24'
_cell_volume   464.03469937
_cell_formula_units_Z   1
loop_
 _symmetry_equiv_pos_site_id
 _symmetry_equiv_pos_as_xyz
  1  'x, y, z'
loop_
 _atom_site_type_symbol
 _atom_site_label
 _atom_site_symmetry_multiplicity
 _atom_site_fract_x
 _atom_site_fract_y
 _atom_site_fract_z
 _atom_site_occupancy
  Ti  Ti0  1  0.139478  0.139478  0.139478  1
  Ti  Ti1  1  0.360497  0.360497  0.360497  1
  Ti  Ti2  1  0.640273  0.640273  0.640273  1
  Cr  Cr3  1  0.858825  0.858825  0.858825  1
  P  P4  1  0.031836  0.749101  0.469394  1
  P  P5  1  0.469394  0.031836  0.749101  1
  P  P6  1  0.749101  0.469394  0.031836  1
  P  P7  1  0.246461  0.535003  0.967289  1
  P  P8  1  0.535003  0.967289  0.246461  1
  P  P9  1  0.967289  0.246461  0.535003  1
  O  O10  1  0.139855  0.269770  0.511474  1
  O  O11  1  0.269770  0.511474  0.139855  1
  O  O12  1  0.060627  0.922895  0.290416  1
  O  O13  1  0.511474  0.139855  0.269770  1
  O  O14  1  0.212123  0.574076  0.447080  1
  O  O15  1  0.999166  0.782010  0.645137  1
  O  O16  1  0.290416  0.060627  0.922895  1
  O  O17  1  0.447080  0.212123  0.574076  1
  O  O18  1  0.574076  0.447080  0.212123  1
  O  O19  1  0.214576  0.365912  0.996419  1
  O  O20  1  0.066529  0.719575  0.934900  1
  O  O21  1  0.365912  0.996419  0.214576  1
  O  O22  1  0.645137  0.999166  0.782010  1
  O  O23  1  0.922895  0.290416  0.060627  1
  O  O24  1  0.782010  0.645137  0.999166  1
  O  O25  1  0.415254  0.570034  0.784790  1
  O  O26  1  0.570034  0.784790  0.415254  1
  O  O27  1  0.719575  0.934900  0.066529  1
  O  O28  1  0.996419  0.214576  0.365912  1
  O  O29  1  0.784790  0.415254  0.570034  1
  O  O30  1  0.498972  0.860960  0.719291  1
  O  O31  1  0.934900  0.066529  0.719575  1
  O  O32  1  0.719291  0.498972  0.860960  1
  O  O33  1  0.860960  0.719291  0.498972  1
