# generated using pymatgen
data_Li3MnV3O8
_symmetry_space_group_name_H-M   'P 1'
_cell_length_a   5.94902012
_cell_length_b   5.94902001
_cell_length_c   5.97238184
_cell_angle_alpha   60.12970543
_cell_angle_beta   60.12971334
_cell_angle_gamma   59.98403739
_symmetry_Int_Tables_number   1
_chemical_formula_structural   Li3MnV3O8
_chemical_formula_sum   'Li3 Mn1 V3 O8'
_cell_volume   149.73367863
_cell_formula_units_Z   1
loop_
 _symmetry_equiv_pos_site_id
 _symmetry_equiv_pos_as_xyz
  1  'x, y, z'
loop_
 _atom_site_type_symbol
 _atom_site_label
 _atom_site_symmetry_multiplicity
 _atom_site_fract_x
 _atom_site_fract_y
 _atom_site_fract_z
 _atom_site_occupancy
  Li  Li0  1  0.500006  0.999993  0.500002  1
  Li  Li1  1  0.999993  0.500006  0.500002  1
  Li  Li2  1  0.000001  0.000001  0.500006  1
  Mn  Mn3  1  0.500011  0.500011  0.499980  1
  V  V4  1  0.500003  0.500003  0.999993  1
  V  V5  1  0.499998  0.000001  0.000004  1
  V  V6  1  0.000001  0.499998  0.000004  1
  O  O7  1  0.730331  0.730331  0.257488  1
  O  O8  1  0.730431  0.281730  0.257472  1
  O  O9  1  0.281730  0.730431  0.257472  1
  O  O10  1  0.258851  0.258851  0.223593  1
  O  O11  1  0.741156  0.741156  0.776404  1
  O  O12  1  0.718264  0.269570  0.742517  1
  O  O13  1  0.269570  0.718264  0.742517  1
  O  O14  1  0.269660  0.269660  0.742520  1
