# generated using pymatgen
data_Mn5(Si2O7)2
_symmetry_space_group_name_H-M   'P 1'
_cell_length_a   7.69938989
_cell_length_b   8.04760787
_cell_length_c   5.68190686
_cell_angle_alpha   88.59523679
_cell_angle_beta   107.87576661
_cell_angle_gamma   114.57464672
_symmetry_Int_Tables_number   1
_chemical_formula_structural   Mn5(Si2O7)2
_chemical_formula_sum   'Mn5 Si4 O14'
_cell_volume   302.54312473
_cell_formula_units_Z   1
loop_
 _symmetry_equiv_pos_site_id
 _symmetry_equiv_pos_as_xyz
  1  'x, y, z'
loop_
 _atom_site_type_symbol
 _atom_site_label
 _atom_site_symmetry_multiplicity
 _atom_site_fract_x
 _atom_site_fract_y
 _atom_site_fract_z
 _atom_site_occupancy
  Mn  Mn0  1  0.000000  0.000000  0.000000  1
  Mn  Mn1  1  0.394247  0.802054  0.089262  1
  Mn  Mn2  1  0.579743  0.692092  0.643648  1
  Mn  Mn3  1  0.420257  0.307908  0.356352  1
  Mn  Mn4  1  0.605753  0.197946  0.910738  1
  Si  Si5  1  0.223579  0.858249  0.499793  1
  Si  Si6  1  0.212947  0.386227  0.772374  1
  Si  Si7  1  0.787053  0.613773  0.227626  1
  Si  Si8  1  0.776421  0.141751  0.500207  1
  O  O9  1  0.344781  0.960875  0.788930  1
  O  O10  1  0.232335  0.583253  0.859951  1
  O  O11  1  0.010566  0.276537  0.527240  1
  O  O12  1  0.345522  0.757357  0.418630  1
  O  O13  1  0.191157  0.248636  0.996873  1
  O  O14  1  0.407639  0.410422  0.688680  1
  O  O15  1  0.213203  0.011827  0.299124  1
  O  O16  1  0.786797  0.988173  0.700876  1
  O  O17  1  0.592361  0.589578  0.311320  1
  O  O18  1  0.808843  0.751364  0.003127  1
  O  O19  1  0.654478  0.242643  0.581370  1
  O  O20  1  0.989434  0.723463  0.472760  1
  O  O21  1  0.767665  0.416747  0.140049  1
  O  O22  1  0.655219  0.039125  0.211070  1
