# generated using pymatgen
data_Li2FeSiO4
_symmetry_space_group_name_H-M   'P 1'
_cell_length_a   6.37486112
_cell_length_b   11.01582606
_cell_length_c   5.05906712
_cell_angle_alpha   90.00000000
_cell_angle_beta   90.00000000
_cell_angle_gamma   92.38829802
_symmetry_Int_Tables_number   1
_chemical_formula_structural   Li2FeSiO4
_chemical_formula_sum   'Li8 Fe4 Si4 O16'
_cell_volume   354.96115629
_cell_formula_units_Z   4
loop_
 _symmetry_equiv_pos_site_id
 _symmetry_equiv_pos_as_xyz
  1  'x, y, z'
loop_
 _atom_site_type_symbol
 _atom_site_label
 _atom_site_symmetry_multiplicity
 _atom_site_fract_x
 _atom_site_fract_y
 _atom_site_fract_z
 _atom_site_occupancy
  Li  Li0  1  0.997155  0.585661  0.313617  1
  Li  Li1  1  0.997155  0.085661  0.186383  1
  Li  Li2  1  0.226448  0.673617  0.812463  1
  Li  Li3  1  0.226448  0.173617  0.687537  1
  Li  Li4  1  0.773552  0.826383  0.312463  1
  Li  Li5  1  0.773552  0.326383  0.187537  1
  Li  Li6  1  0.002845  0.914339  0.813617  1
  Li  Li7  1  0.002845  0.414339  0.686383  1
  Fe  Fe8  1  0.516610  0.906282  0.792265  1
  Fe  Fe9  1  0.516610  0.406282  0.707735  1
  Fe  Fe10  1  0.483390  0.593718  0.292265  1
  Fe  Fe11  1  0.483390  0.093718  0.207735  1
  Si  Si12  1  0.243410  0.838835  0.315044  1
  Si  Si13  1  0.243410  0.338835  0.184956  1
  Si  Si14  1  0.756590  0.661165  0.815044  1
  Si  Si15  1  0.756590  0.161165  0.684956  1
  O  O16  1  0.042963  0.909029  0.202824  1
  O  O17  1  0.042963  0.409029  0.297176  1
  O  O18  1  0.245623  0.838945  0.642173  1
  O  O19  1  0.245623  0.338945  0.857827  1
  O  O20  1  0.244401  0.695860  0.210191  1
  O  O21  1  0.244401  0.195860  0.289809  1
  O  O22  1  0.474330  0.906478  0.215549  1
  O  O23  1  0.474330  0.406478  0.284451  1
  O  O24  1  0.525670  0.593522  0.715549  1
  O  O25  1  0.525670  0.093522  0.784451  1
  O  O26  1  0.755599  0.804140  0.710191  1
  O  O27  1  0.755599  0.304140  0.789809  1
  O  O28  1  0.754377  0.661055  0.142173  1
  O  O29  1  0.754377  0.161055  0.357827  1
  O  O30  1  0.957037  0.590971  0.702824  1
  O  O31  1  0.957037  0.090971  0.797176  1
