# generated using pymatgen
data_Li2CoH8(SO6)2
_symmetry_space_group_name_H-M   'P 1'
_cell_length_a   10.62741288
_cell_length_b   8.15334917
_cell_length_c   5.44875278
_cell_angle_alpha   90.00000000
_cell_angle_beta   99.76717772
_cell_angle_gamma   90.00000000
_symmetry_Int_Tables_number   1
_chemical_formula_structural   Li2CoH8(SO6)2
_chemical_formula_sum   'Li4 Co2 H16 S4 O24'
_cell_volume   465.28562723
_cell_formula_units_Z   2
loop_
 _symmetry_equiv_pos_site_id
 _symmetry_equiv_pos_as_xyz
  1  'x, y, z'
loop_
 _atom_site_type_symbol
 _atom_site_label
 _atom_site_symmetry_multiplicity
 _atom_site_fract_x
 _atom_site_fract_y
 _atom_site_fract_z
 _atom_site_occupancy
  Li  Li0  1  0.134517  0.563707  0.895599  1
  Li  Li1  1  0.365483  0.063707  0.104401  1
  Li  Li2  1  0.634517  0.936293  0.895599  1
  Li  Li3  1  0.865483  0.436293  0.104401  1
  Co  Co4  1  0.000000  0.000000  0.000000  1
  Co  Co5  1  0.500000  0.500000  0.000000  1
  H  H6  1  0.015590  0.715435  0.235069  1
  H  H7  1  0.163411  0.140339  0.777523  1
  H  H8  1  0.187050  0.944196  0.776508  1
  H  H9  1  0.144246  0.801629  0.327939  1
  H  H10  1  0.355754  0.301629  0.672061  1
  H  H11  1  0.312950  0.444196  0.223492  1
  H  H12  1  0.336589  0.640339  0.222477  1
  H  H13  1  0.484410  0.215435  0.764931  1
  H  H14  1  0.515590  0.784565  0.235069  1
  H  H15  1  0.663411  0.359661  0.777523  1
  H  H16  1  0.687050  0.555804  0.776508  1
  H  H17  1  0.644246  0.698371  0.327939  1
  H  H18  1  0.855754  0.198371  0.672061  1
  H  H19  1  0.812950  0.055804  0.223492  1
  H  H20  1  0.836589  0.859661  0.222477  1
  H  H21  1  0.984410  0.284565  0.764931  1
  S  S22  1  0.133005  0.289889  0.371287  1
  S  S23  1  0.366995  0.789889  0.628713  1
  S  S24  1  0.633005  0.210111  0.371287  1
  S  S25  1  0.866995  0.710111  0.628713  1
  O  O26  1  0.068675  0.127878  0.328001  1
  O  O27  1  0.068983  0.415235  0.196319  1
  O  O28  1  0.083127  0.778995  0.173315  1
  O  O29  1  0.129958  0.338574  0.636736  1
  O  O30  1  0.175098  0.041334  0.885075  1
  O  O31  1  0.229076  0.773366  0.657105  1
  O  O32  1  0.270924  0.273366  0.342895  1
  O  O33  1  0.324902  0.541334  0.114925  1
  O  O34  1  0.370042  0.838574  0.363264  1
  O  O35  1  0.416873  0.278995  0.826685  1
  O  O36  1  0.431017  0.915235  0.803681  1
  O  O37  1  0.431325  0.627878  0.671999  1
  O  O38  1  0.568675  0.372122  0.328001  1
  O  O39  1  0.568983  0.084765  0.196319  1
  O  O40  1  0.583127  0.721005  0.173315  1
  O  O41  1  0.629958  0.161426  0.636736  1
  O  O42  1  0.675098  0.458666  0.885075  1
  O  O43  1  0.729076  0.726634  0.657105  1
  O  O44  1  0.770924  0.226634  0.342895  1
  O  O45  1  0.824902  0.958666  0.114925  1
  O  O46  1  0.870042  0.661426  0.363264  1
  O  O47  1  0.916873  0.221005  0.826685  1
  O  O48  1  0.931017  0.584765  0.803681  1
  O  O49  1  0.931325  0.872122  0.671999  1
