# generated using pymatgen
data_CoPO4
_symmetry_space_group_name_H-M   'P 1'
_cell_length_a   8.90087283
_cell_length_b   15.48759381
_cell_length_c   8.30495281
_cell_angle_alpha   90.00000000
_cell_angle_beta   90.00000000
_cell_angle_gamma   90.51845351
_symmetry_Int_Tables_number   1
_chemical_formula_structural   CoPO4
_chemical_formula_sum   'Co12 P12 O48'
_cell_volume   1144.81664431
_cell_formula_units_Z   12
loop_
 _symmetry_equiv_pos_site_id
 _symmetry_equiv_pos_as_xyz
  1  'x, y, z'
loop_
 _atom_site_type_symbol
 _atom_site_label
 _atom_site_symmetry_multiplicity
 _atom_site_fract_x
 _atom_site_fract_y
 _atom_site_fract_z
 _atom_site_occupancy
  Co  Co0  1  0.054098  0.406142  0.281450  1
  Co  Co1  1  0.080261  0.765967  0.209187  1
  Co  Co2  1  0.107323  0.076409  0.281542  1
  Co  Co3  1  0.392677  0.423591  0.781542  1
  Co  Co4  1  0.419739  0.734033  0.709187  1
  Co  Co5  1  0.445902  0.093858  0.781450  1
  Co  Co6  1  0.554098  0.906142  0.218550  1
  Co  Co7  1  0.580261  0.265967  0.290813  1
  Co  Co8  1  0.607323  0.576409  0.218458  1
  Co  Co9  1  0.892677  0.923591  0.718458  1
  Co  Co10  1  0.919739  0.234033  0.790813  1
  Co  Co11  1  0.945902  0.593858  0.718550  1
  P  P12  1  0.064426  0.407062  0.663078  1
  P  P13  1  0.085552  0.768430  0.832493  1
  P  P14  1  0.110113  0.079234  0.665503  1
  P  P15  1  0.389887  0.420766  0.165503  1
  P  P16  1  0.414448  0.731570  0.332493  1
  P  P17  1  0.435574  0.092938  0.163078  1
  P  P18  1  0.564426  0.907062  0.836922  1
  P  P19  1  0.585551  0.268430  0.667507  1
  P  P20  1  0.610113  0.579234  0.834497  1
  P  P21  1  0.889887  0.920766  0.334497  1
  P  P22  1  0.914449  0.231570  0.167507  1
  P  P23  1  0.935574  0.592938  0.336922  1
  O  O24  1  0.020041  0.854897  0.342951  1
  O  O25  1  0.005562  0.608422  0.505382  1
  O  O26  1  0.025866  0.522948  0.246466  1
  O  O27  1  0.042304  0.190225  0.265616  1
  O  O28  1  0.055456  0.996793  0.753857  1
  O  O29  1  0.059967  0.322965  0.762263  1
  O  O30  1  0.093231  0.809880  0.001970  1
  O  O31  1  0.054707  0.669904  0.847358  1
  O  O32  1  0.162229  0.055218  0.493493  1
  O  O33  1  0.230416  0.437104  0.644691  1
  O  O34  1  0.236275  0.785176  0.745365  1
  O  O35  1  0.242737  0.119536  0.759657  1
  O  O36  1  0.257263  0.380464  0.259657  1
  O  O37  1  0.263725  0.714824  0.245365  1
  O  O38  1  0.269584  0.062896  0.144691  1
  O  O39  1  0.337771  0.444781  0.993493  1
  O  O40  1  0.445293  0.830096  0.347358  1
  O  O41  1  0.406769  0.690120  0.501970  1
  O  O42  1  0.440033  0.177035  0.262263  1
  O  O43  1  0.444544  0.503207  0.253857  1
  O  O44  1  0.457696  0.309775  0.765616  1
  O  O45  1  0.474134  0.977052  0.746466  1
  O  O46  1  0.494438  0.891578  0.005382  1
  O  O47  1  0.479959  0.645103  0.842951  1
  O  O48  1  0.520041  0.354897  0.157049  1
  O  O49  1  0.505562  0.108422  0.994618  1
  O  O50  1  0.525866  0.022948  0.253534  1
  O  O51  1  0.542304  0.690225  0.234384  1
  O  O52  1  0.555456  0.496793  0.746143  1
  O  O53  1  0.559967  0.822965  0.737737  1
  O  O54  1  0.593231  0.309880  0.498030  1
  O  O55  1  0.554707  0.169904  0.652642  1
  O  O56  1  0.662229  0.555218  0.006507  1
  O  O57  1  0.730416  0.937104  0.855309  1
  O  O58  1  0.736275  0.285176  0.754635  1
  O  O59  1  0.742737  0.619536  0.740343  1
  O  O60  1  0.757263  0.880464  0.240343  1
  O  O61  1  0.763725  0.214824  0.254635  1
  O  O62  1  0.769584  0.562896  0.355309  1
  O  O63  1  0.837771  0.944782  0.506507  1
  O  O64  1  0.945293  0.330096  0.152642  1
  O  O65  1  0.906769  0.190120  0.998030  1
  O  O66  1  0.940033  0.677035  0.237736  1
  O  O67  1  0.944544  0.003207  0.246143  1
  O  O68  1  0.957696  0.809775  0.734384  1
  O  O69  1  0.974134  0.477052  0.753534  1
  O  O70  1  0.994438  0.391578  0.494618  1
  O  O71  1  0.979959  0.145103  0.657049  1
