# generated using pymatgen
data_LiMnP2O7
_symmetry_space_group_name_H-M   'P 1'
_cell_length_a   4.95672208
_cell_length_b   6.60390745
_cell_length_c   16.60135878
_cell_angle_alpha   89.99885340
_cell_angle_beta   88.39506496
_cell_angle_gamma   90.00061202
_symmetry_Int_Tables_number   1
_chemical_formula_structural   LiMnP2O7
_chemical_formula_sum   'Li4 Mn4 P8 O28'
_cell_volume   543.21127863
_cell_formula_units_Z   4
loop_
 _symmetry_equiv_pos_site_id
 _symmetry_equiv_pos_as_xyz
  1  'x, y, z'
loop_
 _atom_site_type_symbol
 _atom_site_label
 _atom_site_symmetry_multiplicity
 _atom_site_fract_x
 _atom_site_fract_y
 _atom_site_fract_z
 _atom_site_occupancy
  Li  Li0  1  0.256298  0.978779  0.240416  1
  Li  Li1  1  0.256277  0.521239  0.740423  1
  Li  Li2  1  0.743725  0.478771  0.259576  1
  Li  Li3  1  0.743700  0.021211  0.759584  1
  Mn  Mn4  1  0.250843  0.581759  0.373764  1
  Mn  Mn5  1  0.250786  0.918267  0.873720  1
  Mn  Mn6  1  0.749205  0.081733  0.126281  1
  Mn  Mn7  1  0.749157  0.418236  0.626237  1
  P  P8  1  0.259871  0.796656  0.073523  1
  P  P9  1  0.259824  0.703340  0.573545  1
  P  P10  1  0.250097  0.403191  0.163002  1
  P  P11  1  0.250069  0.096818  0.662999  1
  P  P12  1  0.749928  0.903181  0.337007  1
  P  P13  1  0.749904  0.596810  0.836993  1
  P  P14  1  0.740161  0.296664  0.426469  1
  P  P15  1  0.740153  0.203348  0.926450  1
  O  O16  1  0.037700  0.340555  0.405136  1
  O  O17  1  0.037652  0.159491  0.905137  1
  O  O18  1  0.071668  0.239395  0.128372  1
  O  O19  1  0.071641  0.260596  0.628379  1
  O  O20  1  0.127878  0.512142  0.236108  1
  O  O21  1  0.127852  0.987838  0.736118  1
  O  O22  1  0.305235  0.558386  0.090743  1
  O  O23  1  0.305212  0.941603  0.590749  1
  O  O24  1  0.350511  0.677485  0.487687  1
  O  O25  1  0.350484  0.822532  0.987680  1
  O  O26  1  0.435992  0.907112  0.136798  1
  O  O27  1  0.435974  0.592873  0.636796  1
  O  O28  1  0.471175  0.809325  0.316948  1
  O  O29  1  0.471146  0.690694  0.816944  1
  O  O30  1  0.528857  0.309306  0.183054  1
  O  O31  1  0.528829  0.190674  0.683054  1
  O  O32  1  0.564023  0.407133  0.363205  1
  O  O33  1  0.564011  0.092884  0.863204  1
  O  O34  1  0.649492  0.177468  0.012335  1
  O  O35  1  0.649496  0.322511  0.512307  1
  O  O36  1  0.694785  0.058398  0.409251  1
  O  O37  1  0.694768  0.441609  0.909254  1
  O  O38  1  0.872153  0.012168  0.263882  1
  O  O39  1  0.872125  0.487845  0.763890  1
  O  O40  1  0.928360  0.739410  0.371623  1
  O  O41  1  0.928337  0.760598  0.871622  1
  O  O42  1  0.962327  0.840516  0.094866  1
  O  O43  1  0.962303  0.659451  0.594865  1
