# generated using pymatgen
data_Li7Mn8(BO3)8
_symmetry_space_group_name_H-M   'P 1'
_cell_length_a   5.29670406
_cell_length_b   9.03783294
_cell_length_c   10.45833386
_cell_angle_alpha   90.20930808
_cell_angle_beta   92.42545693
_cell_angle_gamma   90.08826391
_symmetry_Int_Tables_number   1
_chemical_formula_structural   Li7Mn8(BO3)8
_chemical_formula_sum   'Li7 Mn8 B8 O24'
_cell_volume   500.19546337
_cell_formula_units_Z   1
loop_
 _symmetry_equiv_pos_site_id
 _symmetry_equiv_pos_as_xyz
  1  'x, y, z'
loop_
 _atom_site_type_symbol
 _atom_site_label
 _atom_site_symmetry_multiplicity
 _atom_site_fract_x
 _atom_site_fract_y
 _atom_site_fract_z
 _atom_site_occupancy
  Li  Li0  1  0.152310  0.974493  0.666552  1
  Li  Li1  1  0.163309  0.013323  0.165859  1
  Li  Li2  1  0.333304  0.502061  0.917721  1
  Li  Li3  1  0.350531  0.495616  0.419655  1
  Li  Li4  1  0.662069  0.516149  0.158385  1
  Li  Li5  1  0.833951  0.001937  0.904954  1
  Li  Li6  1  0.845434  0.000202  0.424157  1
  Mn  Mn7  1  0.170281  0.647636  0.634886  1
  Mn  Mn8  1  0.158866  0.340472  0.130041  1
  Mn  Mn9  1  0.335243  0.159424  0.883571  1
  Mn  Mn10  1  0.340103  0.831542  0.384646  1
  Mn  Mn11  1  0.647099  0.184345  0.629502  1
  Mn  Mn12  1  0.661880  0.841694  0.129823  1
  Mn  Mn13  1  0.819489  0.662058  0.870747  1
  Mn  Mn14  1  0.837424  0.342940  0.379885  1
  B  B15  1  0.179485  0.313305  0.620740  1
  B  B16  1  0.165751  0.673955  0.124416  1
  B  B17  1  0.325217  0.826266  0.874792  1
  B  B18  1  0.326729  0.175146  0.378598  1
  B  B19  1  0.669504  0.837500  0.626709  1
  B  B20  1  0.670634  0.173450  0.123488  1
  B  B21  1  0.826906  0.331237  0.873315  1
  B  B22  1  0.835086  0.673578  0.374639  1
  O  O23  1  0.081154  0.331885  0.913195  1
  O  O24  1  0.086748  0.657740  0.417226  1
  O  O25  1  0.174952  0.950731  0.859808  1
  O  O26  1  0.223388  0.686847  0.845690  1
  O  O27  1  0.190772  0.046682  0.361078  1
  O  O28  1  0.226293  0.310646  0.339710  1
  O  O29  1  0.286437  0.179068  0.665925  1
  O  O30  1  0.275844  0.807040  0.167593  1
  O  O31  1  0.320164  0.437031  0.607123  1
  O  O32  1  0.313641  0.549386  0.109362  1
  O  O33  1  0.407739  0.832949  0.595531  1
  O  O34  1  0.411116  0.163250  0.091793  1
  O  O35  1  0.578179  0.840889  0.916021  1
  O  O36  1  0.576053  0.173647  0.433919  1
  O  O37  1  0.674620  0.449783  0.886418  1
  O  O38  1  0.682096  0.550512  0.356465  1
  O  O39  1  0.721883  0.195371  0.821458  1
  O  O40  1  0.733946  0.813942  0.345808  1
  O  O41  1  0.795479  0.712482  0.669604  1
  O  O42  1  0.800126  0.969483  0.611054  1
  O  O43  1  0.771885  0.305445  0.172333  1
  O  O44  1  0.823599  0.052826  0.102341  1
  O  O45  1  0.925528  0.310070  0.582339  1
  O  O46  1  0.906975  0.666276  0.094147  1
