# generated using pymatgen
data_Mn5O9F
_symmetry_space_group_name_H-M   'P 1'
_cell_length_a   5.07527776
_cell_length_b   5.11510858
_cell_length_c   7.92404426
_cell_angle_alpha   109.76943553
_cell_angle_beta   78.26182354
_cell_angle_gamma   80.14996736
_symmetry_Int_Tables_number   1
_chemical_formula_structural   Mn5O9F
_chemical_formula_sum   'Mn5 O9 F1'
_cell_volume   183.00368999
_cell_formula_units_Z   1
loop_
 _symmetry_equiv_pos_site_id
 _symmetry_equiv_pos_as_xyz
  1  'x, y, z'
loop_
 _atom_site_type_symbol
 _atom_site_label
 _atom_site_symmetry_multiplicity
 _atom_site_fract_x
 _atom_site_fract_y
 _atom_site_fract_z
 _atom_site_occupancy
  Mn  Mn0  1  0.996794  0.194253  0.401288  1
  Mn  Mn1  1  0.984326  0.006492  0.009933  1
  Mn  Mn2  1  0.994201  0.599076  0.200697  1
  Mn  Mn3  1  0.000666  0.793277  0.590549  1
  Mn  Mn4  1  0.002001  0.413472  0.797935  1
  O  O5  1  0.187756  0.212280  0.169128  1
  O  O6  1  0.197911  0.807036  0.360837  1
  O  O7  1  0.198809  0.418685  0.561043  1
  O  O8  1  0.190286  0.616361  0.968136  1
  O  O9  1  0.808054  0.387027  0.028258  1
  O  O10  1  0.784832  0.982440  0.263907  1
  O  O11  1  0.799580  0.586283  0.441718  1
  O  O12  1  0.809220  0.185281  0.639352  1
  O  O13  1  0.809714  0.786220  0.829027  1
  F  F14  1  0.232989  0.012053  0.734917  1
