# generated using pymatgen
data_Li3Fe2(SiO4)2
_symmetry_space_group_name_H-M   'P 1'
_cell_length_a   5.46798002
_cell_length_b   8.65698932
_cell_length_c   8.33730949
_cell_angle_alpha   76.46365247
_cell_angle_beta   89.96061898
_cell_angle_gamma   90.05710014
_symmetry_Int_Tables_number   1
_chemical_formula_structural   Li3Fe2(SiO4)2
_chemical_formula_sum   'Li6 Fe4 Si4 O16'
_cell_volume   383.69363352
_cell_formula_units_Z   2
loop_
 _symmetry_equiv_pos_site_id
 _symmetry_equiv_pos_as_xyz
  1  'x, y, z'
loop_
 _atom_site_type_symbol
 _atom_site_label
 _atom_site_symmetry_multiplicity
 _atom_site_fract_x
 _atom_site_fract_y
 _atom_site_fract_z
 _atom_site_occupancy
  Li  Li0  1  0.845441  0.068260  0.037095  1
  Li  Li1  1  0.327579  0.354235  0.450471  1
  Li  Li2  1  0.154913  0.568084  0.037207  1
  Li  Li3  1  0.674287  0.401095  0.951925  1
  Li  Li4  1  0.672234  0.854318  0.450524  1
  Li  Li5  1  0.325762  0.901126  0.952116  1
  Fe  Fe6  1  0.317588  0.202074  0.142936  1
  Fe  Fe7  1  0.824032  0.377788  0.620351  1
  Fe  Fe8  1  0.682345  0.702019  0.142742  1
  Fe  Fe9  1  0.176044  0.877485  0.620663  1
  Si  Si10  1  0.680776  0.006411  0.756577  1
  Si  Si11  1  0.833682  0.331997  0.253526  1
  Si  Si12  1  0.319534  0.506296  0.756597  1
  Si  Si13  1  0.166009  0.831921  0.253620  1
  O  O14  1  0.174577  0.002380  0.110803  1
  O  O15  1  0.386587  0.013368  0.705897  1
  O  O16  1  0.696975  0.207881  0.161187  1
  O  O17  1  0.117447  0.284572  0.304457  1
  O  O18  1  0.782785  0.181229  0.776151  1
  O  O19  1  0.681842  0.354262  0.419357  1
  O  O20  1  0.825242  0.502469  0.110687  1
  O  O21  1  0.160230  0.438931  0.619084  1
  O  O22  1  0.307092  0.397851  0.944799  1
  O  O23  1  0.613798  0.513669  0.705700  1
  O  O24  1  0.302854  0.707985  0.161207  1
  O  O25  1  0.882119  0.784079  0.304713  1
  O  O26  1  0.217288  0.680914  0.776294  1
  O  O27  1  0.317798  0.854459  0.419262  1
  O  O28  1  0.840229  0.939019  0.619091  1
  O  O29  1  0.692936  0.898005  0.944780  1
