# generated using pymatgen
data_Ti3Mn3Cr2O16
_symmetry_space_group_name_H-M   'P 1'
_cell_length_a   5.86192493
_cell_length_b   5.87232020
_cell_length_c   8.90693507
_cell_angle_alpha   89.99991196
_cell_angle_beta   89.84132450
_cell_angle_gamma   120.05865403
_symmetry_Int_Tables_number   1
_chemical_formula_structural   Ti3Mn3Cr2O16
_chemical_formula_sum   'Ti3 Mn3 Cr2 O16'
_cell_volume   265.36869357
_cell_formula_units_Z   1
loop_
 _symmetry_equiv_pos_site_id
 _symmetry_equiv_pos_as_xyz
  1  'x, y, z'
loop_
 _atom_site_type_symbol
 _atom_site_label
 _atom_site_symmetry_multiplicity
 _atom_site_fract_x
 _atom_site_fract_y
 _atom_site_fract_z
 _atom_site_occupancy
  Ti  Ti0  1  0.160919  0.831261  0.209831  1
  Ti  Ti1  1  0.160897  0.329681  0.209814  1
  Ti  Ti2  1  0.318765  0.159373  0.707475  1
  Mn  Mn3  1  0.656885  0.828448  0.209799  1
  Mn  Mn4  1  0.829388  0.659572  0.710236  1
  Mn  Mn5  1  0.829390  0.169837  0.710237  1
  Cr  Cr6  1  0.343499  0.671742  0.487644  1
  Cr  Cr7  1  0.667760  0.333904  0.985189  1
  O  O8  1  0.172059  0.832616  0.602212  1
  O  O9  1  0.052474  0.526243  0.343929  1
  O  O10  1  0.335582  0.667804  0.097981  1
  O  O11  1  0.991383  0.995704  0.315201  1
  O  O12  1  0.991253  0.995637  0.815726  1
  O  O13  1  0.172060  0.339445  0.602215  1
  O  O14  1  0.484358  0.955184  0.339822  1
  O  O15  1  0.484360  0.529180  0.339817  1
  O  O16  1  0.341986  0.171008  0.104900  1
  O  O17  1  0.657036  0.828523  0.603960  1
  O  O18  1  0.530508  0.480418  0.840977  1
  O  O19  1  0.530502  0.050106  0.840981  1
  O  O20  1  0.673386  0.336702  0.600456  1
  O  O21  1  0.827882  0.655897  0.101243  1
  O  O22  1  0.959791  0.479907  0.834833  1
  O  O23  1  0.827876  0.172005  0.101239  1
