# generated using pymatgen
data_Cr2(PS4)3
_symmetry_space_group_name_H-M   'P 1'
_cell_length_a   17.45057787
_cell_length_b   11.62519325
_cell_length_c   9.82345810
_cell_angle_alpha   90.00000000
_cell_angle_beta   84.98532288
_cell_angle_gamma   90.00000000
_symmetry_Int_Tables_number   1
_chemical_formula_structural   Cr2(PS4)3
_chemical_formula_sum   'Cr8 P12 S48'
_cell_volume   1985.22104253
_cell_formula_units_Z   4
loop_
 _symmetry_equiv_pos_site_id
 _symmetry_equiv_pos_as_xyz
  1  'x, y, z'
loop_
 _atom_site_type_symbol
 _atom_site_label
 _atom_site_symmetry_multiplicity
 _atom_site_fract_x
 _atom_site_fract_y
 _atom_site_fract_z
 _atom_site_occupancy
  Cr  Cr0  1  0.101114  0.777856  0.107872  1
  Cr  Cr1  1  0.210451  0.268263  0.571232  1
  Cr  Cr2  1  0.289549  0.768263  0.928768  1
  Cr  Cr3  1  0.398886  0.277856  0.392128  1
  Cr  Cr4  1  0.601114  0.722144  0.607872  1
  Cr  Cr5  1  0.710451  0.231737  0.071232  1
  Cr  Cr6  1  0.789549  0.731737  0.428768  1
  Cr  Cr7  1  0.898886  0.222144  0.892128  1
  P  P8  1  0.053398  0.237816  0.725138  1
  P  P9  1  0.135884  0.690992  0.800140  1
  P  P10  1  0.252579  0.864102  0.227852  1
  P  P11  1  0.247421  0.364102  0.272148  1
  P  P12  1  0.364116  0.190992  0.699860  1
  P  P13  1  0.446602  0.737816  0.774862  1
  P  P14  1  0.553398  0.262184  0.225138  1
  P  P15  1  0.635884  0.809008  0.300140  1
  P  P16  1  0.752579  0.635898  0.727852  1
  P  P17  1  0.747421  0.135898  0.772148  1
  P  P18  1  0.864116  0.309008  0.199860  1
  P  P19  1  0.946602  0.762184  0.274862  1
  S  S20  1  0.046440  0.671000  0.291973  1
  S  S21  1  0.019577  0.126438  0.880979  1
  S  S22  1  0.073086  0.622795  0.970806  1
  S  S23  1  0.098949  0.155574  0.551982  1
  S  S24  1  0.089684  0.686295  0.628885  1
  S  S25  1  0.145830  0.941214  0.213972  1
  S  S26  1  0.140341  0.350487  0.761107  1
  S  S27  1  0.184034  0.430074  0.443815  1
  S  S28  1  0.163038  0.851555  0.887842  1
  S  S29  1  0.202244  0.370269  0.099723  1
  S  S30  1  0.227179  0.699867  0.147097  1
  S  S31  1  0.241190  0.610420  0.815327  1
  S  S32  1  0.258810  0.110420  0.684673  1
  S  S33  1  0.272821  0.199867  0.352903  1
  S  S34  1  0.297756  0.870269  0.400277  1
  S  S35  1  0.315966  0.930074  0.056186  1
  S  S36  1  0.336962  0.351555  0.612158  1
  S  S37  1  0.354170  0.441214  0.286028  1
  S  S38  1  0.359659  0.850487  0.738893  1
  S  S39  1  0.410316  0.186295  0.871115  1
  S  S40  1  0.401051  0.655574  0.948018  1
  S  S41  1  0.426914  0.122795  0.529194  1
  S  S42  1  0.453560  0.171000  0.208027  1
  S  S43  1  0.480423  0.626438  0.619021  1
  S  S44  1  0.519577  0.373562  0.380979  1
  S  S45  1  0.546440  0.829000  0.791973  1
  S  S46  1  0.573086  0.877205  0.470806  1
  S  S47  1  0.598949  0.344426  0.051982  1
  S  S48  1  0.589684  0.813705  0.128885  1
  S  S49  1  0.640341  0.149513  0.261107  1
  S  S50  1  0.645830  0.558786  0.713972  1
  S  S51  1  0.663038  0.648445  0.387842  1
  S  S52  1  0.684034  0.069926  0.943815  1
  S  S53  1  0.702244  0.129731  0.599723  1
  S  S54  1  0.727179  0.800133  0.647097  1
  S  S55  1  0.741190  0.889580  0.315327  1
  S  S56  1  0.758810  0.389580  0.184673  1
  S  S57  1  0.772821  0.300133  0.852903  1
  S  S58  1  0.797756  0.629731  0.900277  1
  S  S59  1  0.836962  0.148445  0.112158  1
  S  S60  1  0.815966  0.569926  0.556185  1
  S  S61  1  0.859659  0.649513  0.238894  1
  S  S62  1  0.854170  0.058786  0.786028  1
  S  S63  1  0.910316  0.313705  0.371115  1
  S  S64  1  0.901051  0.844426  0.448018  1
  S  S65  1  0.926914  0.377205  0.029194  1
  S  S66  1  0.980423  0.873562  0.119021  1
  S  S67  1  0.953560  0.329000  0.708027  1
