# generated using pymatgen
data_Sb17S27
_symmetry_space_group_name_H-M   'P 1'
_cell_length_a   8.77609493
_cell_length_b   8.79109821
_cell_length_c   15.38668075
_cell_angle_alpha   76.30731094
_cell_angle_beta   84.61237572
_cell_angle_gamma   96.58438555
_symmetry_Int_Tables_number   1
_chemical_formula_structural   Sb17S27
_chemical_formula_sum   'Sb17 S27'
_cell_volume   1136.71487522
_cell_formula_units_Z   1
loop_
 _symmetry_equiv_pos_site_id
 _symmetry_equiv_pos_as_xyz
  1  'x, y, z'
loop_
 _atom_site_type_symbol
 _atom_site_label
 _atom_site_symmetry_multiplicity
 _atom_site_fract_x
 _atom_site_fract_y
 _atom_site_fract_z
 _atom_site_occupancy
  Sb  Sb0  1  0.380818  0.663576  0.922354  1
  Sb  Sb1  1  0.878703  0.402645  0.611921  1
  Sb  Sb2  1  0.120621  0.991354  0.801435  1
  Sb  Sb3  1  0.455712  0.945955  0.391194  1
  Sb  Sb4  1  0.947584  0.670687  0.065930  1
  Sb  Sb5  1  0.191928  0.717123  0.611554  1
  Sb  Sb6  1  0.719511  0.002213  0.922505  1
  Sb  Sb7  1  0.473367  0.342026  0.801357  1
  Sb  Sb8  1  0.526107  0.679024  0.194044  1
  Sb  Sb9  1  0.288097  0.000444  0.069066  1
  Sb  Sb10  1  0.787181  0.281125  0.392040  1
  Sb  Sb11  1  0.045187  0.333802  0.929520  1
  Sb  Sb12  1  0.550597  0.047125  0.608135  1
  Sb  Sb13  1  0.860324  0.005926  0.196272  1
  Sb  Sb14  1  0.124438  0.614468  0.388515  1
  Sb  Sb15  1  0.619231  0.342132  0.066126  1
  Sb  Sb16  1  0.197373  0.343145  0.196938  1
  S  S17  1  0.844710  0.983918  0.774343  1
  S  S18  1  0.903118  0.665855  0.650506  1
  S  S19  1  0.779906  0.981955  0.355458  1
  S  S20  1  0.437321  0.976818  0.875601  1
  S  S21  1  0.828731  0.695441  0.222675  1
  S  S22  1  0.819920  0.535127  0.460327  1
  S  S23  1  0.518055  0.799932  0.538038  1
  S  S24  1  0.496896  0.634674  0.774492  1
  S  S25  1  0.762918  0.309633  0.882870  1
  S  S26  1  0.901896  0.352597  0.121968  1
  S  S27  1  0.156740  0.871982  0.459858  1
  S  S28  1  0.561477  0.357986  0.642787  1
  S  S29  1  0.443874  0.649996  0.356987  1
  S  S30  1  0.842217  0.123923  0.537716  1
  S  S31  1  0.100277  0.645687  0.881973  1
  S  S32  1  0.676342  0.653858  0.005533  1
  S  S33  1  0.238544  0.683162  0.127991  1
  S  S34  1  0.492833  0.361192  0.223687  1
  S  S35  1  0.486713  0.204038  0.463965  1
  S  S36  1  0.180797  0.463226  0.536729  1
  S  S37  1  0.173297  0.305310  0.775859  1
  S  S38  1  0.567753  0.013281  0.127203  1
  S  S39  1  0.213470  0.010677  0.642813  1
  S  S40  1  0.112043  0.316321  0.357726  1
  S  S41  1  0.334063  0.328102  0.001434  1
  S  S42  1  0.161781  0.027860  0.222448  1
  S  S43  1  0.004856  0.998364  0.000927  1
