# generated using pymatgen
data_Co2C2O7
_symmetry_space_group_name_H-M   'P 1'
_cell_length_a   8.52784463
_cell_length_b   8.51276951
_cell_length_c   8.24876594
_cell_angle_alpha   89.56861667
_cell_angle_beta   89.99999986
_cell_angle_gamma   59.94140640
_symmetry_Int_Tables_number   1
_chemical_formula_structural   Co2C2O7
_chemical_formula_sum   'Co6 C6 O21'
_cell_volume   518.27064542
_cell_formula_units_Z   3
loop_
 _symmetry_equiv_pos_site_id
 _symmetry_equiv_pos_as_xyz
  1  'x, y, z'
loop_
 _atom_site_type_symbol
 _atom_site_label
 _atom_site_symmetry_multiplicity
 _atom_site_fract_x
 _atom_site_fract_y
 _atom_site_fract_z
 _atom_site_occupancy
  Co  Co0  1  0.998729  0.001366  0.284419  1
  Co  Co1  1  0.000095  0.998634  0.715581  1
  Co  Co2  1  0.333234  0.332647  0.824541  1
  Co  Co3  1  0.334237  0.331551  0.258996  1
  Co  Co4  1  0.665881  0.667353  0.175459  1
  Co  Co5  1  0.665788  0.668449  0.741004  1
  C  C6  1  0.999369  0.338987  0.266243  1
  C  C7  1  0.337306  0.663124  0.267271  1
  C  C8  1  0.663603  0.998302  0.266240  1
  C  C9  1  0.338356  0.661013  0.733757  1
  C  C10  1  0.000429  0.336876  0.732729  1
  C  C11  1  0.661905  0.001698  0.733760  1
  O  O12  1  0.998937  0.000000  0.500000  1
  O  O13  1  0.067896  0.170000  0.779974  1
  O  O14  1  0.163654  0.261870  0.324120  1
  O  O15  1  0.096719  0.415064  0.739958  1
  O  O16  1  0.331929  0.332231  0.040794  1
  O  O17  1  0.263544  0.572557  0.323507  1
  O  O18  1  0.487800  0.094576  0.744343  1
  O  O19  1  0.172408  0.758999  0.781663  1
  O  O20  1  0.237896  0.830000  0.220026  1
  O  O21  1  0.419675  0.486821  0.743233  1
  O  O22  1  0.575581  0.162511  0.322999  1
  O  O23  1  0.759848  0.070147  0.780311  1
  O  O24  1  0.425524  0.738130  0.675880  1
  O  O25  1  0.511783  0.584936  0.260042  1
  O  O26  1  0.664161  0.667769  0.959206  1
  O  O27  1  0.836100  0.427443  0.676493  1
  O  O28  1  0.582376  0.905424  0.255657  1
  O  O29  1  0.931408  0.241001  0.218337  1
  O  O30  1  0.906496  0.513179  0.256767  1
  O  O31  1  0.738092  0.837489  0.677001  1
  O  O32  1  0.829995  0.929853  0.219689  1
