# generated using pymatgen
data_Li3Mn4(BO3)4
_symmetry_space_group_name_H-M   'P 1'
_cell_length_a   9.08460090
_cell_length_b   9.11669100
_cell_length_c   10.42094638
_cell_angle_alpha   89.75761897
_cell_angle_beta   91.58470806
_cell_angle_gamma   60.06349492
_symmetry_Int_Tables_number   1
_chemical_formula_structural   Li3Mn4(BO3)4
_chemical_formula_sum   'Li9 Mn12 B12 O36'
_cell_volume   747.47755004
_cell_formula_units_Z   3
loop_
 _symmetry_equiv_pos_site_id
 _symmetry_equiv_pos_as_xyz
  1  'x, y, z'
loop_
 _atom_site_type_symbol
 _atom_site_label
 _atom_site_symmetry_multiplicity
 _atom_site_fract_x
 _atom_site_fract_y
 _atom_site_fract_z
 _atom_site_occupancy
  Li  Li0  1  0.225317  0.388663  0.889647  1
  Li  Li1  1  0.437491  0.285609  0.667594  1
  Li  Li2  1  0.105272  0.954515  0.169141  1
  Li  Li3  1  0.442036  0.303936  0.150628  1
  Li  Li4  1  0.888579  0.045055  0.921766  1
  Li  Li5  1  0.566661  0.716449  0.418665  1
  Li  Li6  1  0.902305  0.034284  0.418130  1
  Li  Li7  1  0.764292  0.595055  0.671190  1
  Li  Li8  1  0.778982  0.621819  0.169503  1
  Mn  Mn9  1  0.225434  0.033702  0.879990  1
  Mn  Mn10  1  0.122410  0.276865  0.131796  1
  Mn  Mn11  1  0.084237  0.639436  0.630032  1
  Mn  Mn12  1  0.525745  0.084226  0.377061  1
  Mn  Mn13  1  0.240995  0.694605  0.379126  1
  Mn  Mn14  1  0.575490  0.405867  0.878314  1
  Mn  Mn15  1  0.440688  0.632629  0.122891  1
  Mn  Mn16  1  0.425040  0.957922  0.632551  1
  Mn  Mn17  1  0.805891  0.247367  0.631955  1
  Mn  Mn18  1  0.910568  0.386909  0.387039  1
  Mn  Mn19  1  0.863670  0.716212  0.889010  1
  Mn  Mn20  1  0.762058  0.954361  0.135224  1
  B  B21  1  0.222348  0.048187  0.381801  1
  B  B22  1  0.111444  0.289217  0.633715  1
  B  B23  1  0.112084  0.613347  0.121309  1
  B  B24  1  0.204781  0.714728  0.872009  1
  B  B25  1  0.551912  0.064742  0.865416  1
  B  B26  1  0.453470  0.599636  0.631302  1
  B  B27  1  0.576755  0.392457  0.366196  1
  B  B28  1  0.441341  0.951568  0.126752  1
  B  B29  1  0.786396  0.283745  0.118668  1
  B  B30  1  0.897886  0.369205  0.875266  1
  B  B31  1  0.767634  0.938806  0.621546  1
  B  B32  1  0.872874  0.742785  0.384094  1
  O  O33  1  0.066382  0.293178  0.915185  1
  O  O34  1  0.181987  0.115359  0.662330  1
  O  O35  1  0.159479  0.213721  0.340587  1
  O  O36  1  0.269735  0.016528  0.090996  1
  O  O37  1  0.035175  0.672731  0.443992  1
  O  O38  1  0.200336  0.372240  0.640678  1
  O  O39  1  0.124303  0.627687  0.820854  1
  O  O40  1  0.210130  0.444552  0.094084  1
  O  O41  1  0.185241  0.704619  0.173043  1
  O  O42  1  0.116398  0.884439  0.884630  1
  O  O43  1  0.496225  0.064581  0.164210  1
  O  O44  1  0.470026  0.237819  0.857754  1
  O  O45  1  0.592627  0.039907  0.592980  1
  O  O46  1  0.137792  0.960838  0.362359  1
  O  O47  1  0.289994  0.654312  0.585263  1
  O  O48  1  0.482977  0.317664  0.335178  1
  O  O49  1  0.373844  0.620676  0.916052  1
  O  O50  1  0.544975  0.434596  0.687844  1
  O  O51  1  0.504521  0.566162  0.336342  1
  O  O52  1  0.614327  0.375165  0.069426  1
  O  O53  1  0.390188  0.965651  0.439985  1
  O  O54  1  0.874907  0.000576  0.607732  1
  O  O55  1  0.530794  0.694312  0.615909  1
  O  O56  1  0.739374  0.300370  0.423582  1
  O  O57  1  0.551030  0.781652  0.126040  1
  O  O58  1  0.472750  0.972817  0.818684  1
  O  O59  1  0.871118  0.109976  0.115102  1
  O  O60  1  0.823888  0.264931  0.849499  1
  O  O61  1  0.858830  0.375970  0.165543  1
  O  O62  1  0.794130  0.538709  0.856647  1
  O  O63  1  0.797184  0.646942  0.363512  1
  O  O64  1  0.937839  0.375840  0.597241  1
  O  O65  1  0.715424  0.972911  0.919503  1
  O  O66  1  0.833234  0.768426  0.661278  1
  O  O67  1  0.793590  0.911448  0.342827  1
  O  O68  1  0.936321  0.696509  0.093790  1
