# generated using pymatgen
data_Li3Ti(NiO3)2
_symmetry_space_group_name_H-M   'P 1'
_cell_length_a   15.36737138
_cell_length_b   9.78081572
_cell_length_c   9.78081579
_cell_angle_alpha   17.14587219
_cell_angle_beta   16.71209548
_cell_angle_gamma   16.71209510
_symmetry_Int_Tables_number   1
_chemical_formula_structural   Li3Ti(NiO3)2
_chemical_formula_sum   'Li3 Ti1 Ni2 O6'
_cell_volume   107.78006022
_cell_formula_units_Z   1
loop_
 _symmetry_equiv_pos_site_id
 _symmetry_equiv_pos_as_xyz
  1  'x, y, z'
loop_
 _atom_site_type_symbol
 _atom_site_label
 _atom_site_symmetry_multiplicity
 _atom_site_fract_x
 _atom_site_fract_y
 _atom_site_fract_z
 _atom_site_occupancy
  Li  Li0  1  0.166667  0.500000  0.500000  1
  Li  Li1  1  0.492497  0.501436  0.501436  1
  Li  Li2  1  0.840837  0.498564  0.498564  1
  Ti  Ti3  1  0.666667  0.000000  0.000000  1
  Ni  Ni4  1  0.991816  0.006481  0.006481  1
  Ni  Ni5  1  0.341518  0.993519  0.993519  1
  O  O6  1  0.264105  0.245994  0.245994  1
  O  O7  1  0.570182  0.264457  0.264457  1
  O  O8  1  0.069229  0.754006  0.754006  1
  O  O9  1  0.886829  0.277046  0.277046  1
  O  O10  1  0.446504  0.722954  0.722954  1
  O  O11  1  0.763151  0.735543  0.735543  1
