# generated using pymatgen
data_Li2V(CO3)2
_symmetry_space_group_name_H-M   'P 1'
_cell_length_a   7.92454759
_cell_length_b   7.92444496
_cell_length_c   9.04340577
_cell_angle_alpha   73.72622349
_cell_angle_beta   73.72552301
_cell_angle_gamma   106.78240256
_symmetry_Int_Tables_number   1
_chemical_formula_structural   Li2V(CO3)2
_chemical_formula_sum   'Li8 V4 C8 O24'
_cell_volume   479.94473563
_cell_formula_units_Z   4
loop_
 _symmetry_equiv_pos_site_id
 _symmetry_equiv_pos_as_xyz
  1  'x, y, z'
loop_
 _atom_site_type_symbol
 _atom_site_label
 _atom_site_symmetry_multiplicity
 _atom_site_fract_x
 _atom_site_fract_y
 _atom_site_fract_z
 _atom_site_occupancy
  Li  Li0  1  0.863990  0.249340  0.934106  1
  Li  Li1  1  0.540164  0.276759  0.633307  1
  Li  Li2  1  0.591090  0.666435  0.482119  1
  Li  Li3  1  0.416444  0.841093  0.982117  1
  Li  Li4  1  0.523301  0.303824  0.145717  1
  Li  Li5  1  0.053826  0.773297  0.645718  1
  Li  Li6  1  0.999330  0.113976  0.434112  1
  Li  Li7  1  0.026761  0.790172  0.133296  1
  V  V8  1  0.248082  0.241352  0.003115  1
  V  V9  1  0.991353  0.498090  0.503101  1
  V  V10  1  0.748944  0.744169  0.999589  1
  V  V11  1  0.494163  0.998941  0.499598  1
  C  C12  1  0.713035  0.066037  0.740429  1
  C  C13  1  0.678502  0.527145  0.771823  1
  C  C14  1  0.816025  0.963021  0.240441  1
  C  C15  1  0.277138  0.928492  0.271836  1
  C  C16  1  0.784716  0.432727  0.267257  1
  C  C17  1  0.182725  0.034713  0.767253  1
  C  C18  1  0.214402  0.559266  0.738137  1
  C  C19  1  0.309260  0.464411  0.238160  1
  O  O20  1  0.869341  0.182119  0.612722  1
  O  O21  1  0.710721  0.012712  0.891731  1
  O  O22  1  0.932115  0.119341  0.112729  1
  O  O23  1  0.941951  0.524788  0.277273  1
  O  O24  1  0.772783  0.686236  0.776819  1
  O  O25  1  0.706450  0.516805  0.623676  1
  O  O26  1  0.564237  0.375276  0.905093  1
  O  O27  1  0.638718  0.304196  0.400671  1
  O  O28  1  0.769338  0.473799  0.123115  1
  O  O29  1  0.762706  0.960705  0.391738  1
  O  O30  1  0.752073  0.800272  0.225367  1
  O  O31  1  0.436233  0.022780  0.276828  1
  O  O32  1  0.550276  0.002078  0.725370  1
  O  O33  1  0.274780  0.191942  0.777292  1
  O  O34  1  0.223802  0.019351  0.623113  1
  O  O35  1  0.234712  0.501113  0.875752  1
  O  O36  1  0.356115  0.691480  0.602574  1
  O  O37  1  0.441487  0.606113  0.102565  1
  O  O38  1  0.251132  0.484731  0.375734  1
  O  O39  1  0.240088  0.294444  0.231364  1
  O  O40  1  0.044450  0.490091  0.731351  1
  O  O41  1  0.054187  0.888703  0.900665  1
  O  O42  1  0.125278  0.814242  0.405092  1
  O  O43  1  0.266810  0.956444  0.123677  1
