# generated using pymatgen
data_Li2V2F7
_symmetry_space_group_name_H-M   'P 1'
_cell_length_a   5.07378088
_cell_length_b   5.07378147
_cell_length_c   11.74521309
_cell_angle_alpha   111.35192796
_cell_angle_beta   68.64806905
_cell_angle_gamma   97.24898775
_symmetry_Int_Tables_number   1
_chemical_formula_structural   Li2V2F7
_chemical_formula_sum   'Li4 V4 F14'
_cell_volume   262.27039773
_cell_formula_units_Z   2
loop_
 _symmetry_equiv_pos_site_id
 _symmetry_equiv_pos_as_xyz
  1  'x, y, z'
loop_
 _atom_site_type_symbol
 _atom_site_label
 _atom_site_symmetry_multiplicity
 _atom_site_fract_x
 _atom_site_fract_y
 _atom_site_fract_z
 _atom_site_occupancy
  Li  Li0  1  0.260432  0.130674  0.480514  1
  Li  Li1  1  0.630674  0.760432  0.019486  1
  Li  Li2  1  0.369326  0.239568  0.980514  1
  Li  Li3  1  0.739568  0.869326  0.519486  1
  V  V4  1  0.008733  0.982116  0.251313  1
  V  V5  1  0.482116  0.508733  0.248687  1
  V  V6  1  0.517884  0.491267  0.751313  1
  V  V7  1  0.991267  0.017884  0.748687  1
  F  F8  1  0.112410  0.806501  0.369456  1
  F  F9  1  0.373100  0.119226  0.124574  1
  F  F10  1  0.306501  0.612410  0.130544  1
  F  F11  1  0.203446  0.310639  0.370796  1
  F  F12  1  0.209263  0.709263  0.750000  1
  F  F13  1  0.189361  0.296554  0.870796  1
  F  F14  1  0.619226  0.873100  0.375426  1
  F  F15  1  0.380774  0.126900  0.624574  1
  F  F16  1  0.810639  0.703446  0.129204  1
  F  F17  1  0.790737  0.290737  0.250000  1
  F  F18  1  0.796554  0.689361  0.629204  1
  F  F19  1  0.693499  0.387590  0.869456  1
  F  F20  1  0.626900  0.880774  0.875426  1
  F  F21  1  0.887590  0.193499  0.630544  1
