# generated using pymatgen
data_MnFeCo(PO4)3
_symmetry_space_group_name_H-M   'P 1'
_cell_length_a   9.88691789
_cell_length_b   5.96539040
_cell_length_c   14.60070580
_cell_angle_alpha   90.00000000
_cell_angle_beta   90.00000000
_cell_angle_gamma   90.00000000
_symmetry_Int_Tables_number   1
_chemical_formula_structural   MnFeCo(PO4)3
_chemical_formula_sum   'Mn4 Fe4 Co4 P12 O48'
_cell_volume   861.13977358
_cell_formula_units_Z   4
loop_
 _symmetry_equiv_pos_site_id
 _symmetry_equiv_pos_as_xyz
  1  'x, y, z'
loop_
 _atom_site_type_symbol
 _atom_site_label
 _atom_site_symmetry_multiplicity
 _atom_site_fract_x
 _atom_site_fract_y
 _atom_site_fract_z
 _atom_site_occupancy
  Mn  Mn0  1  0.217371  0.750000  0.480337  1
  Mn  Mn1  1  0.282629  0.250000  0.980337  1
  Mn  Mn2  1  0.717698  0.750000  0.352387  1
  Mn  Mn3  1  0.782302  0.250000  0.852387  1
  Fe  Fe4  1  0.226599  0.750000  0.821769  1
  Fe  Fe5  1  0.273401  0.250000  0.321769  1
  Fe  Fe6  1  0.725295  0.750000  0.676819  1
  Fe  Fe7  1  0.774705  0.250000  0.176819  1
  Co  Co8  1  0.219318  0.750000  0.151330  1
  Co  Co9  1  0.280682  0.250000  0.651330  1
  Co  Co10  1  0.729937  0.750000  0.010385  1
  Co  Co11  1  0.770063  0.250000  0.510385  1
  P  P12  1  0.098541  0.250000  0.138399  1
  P  P13  1  0.094840  0.250000  0.475536  1
  P  P14  1  0.099786  0.250000  0.805338  1
  P  P15  1  0.400214  0.750000  0.305339  1
  P  P16  1  0.401459  0.750000  0.638399  1
  P  P17  1  0.405160  0.750000  0.975536  1
  P  P18  1  0.599700  0.250000  0.026913  1
  P  P19  1  0.596816  0.250000  0.361422  1
  P  P20  1  0.599209  0.250000  0.695212  1
  P  P21  1  0.900791  0.750000  0.195212  1
  P  P22  1  0.900300  0.750000  0.526913  1
  P  P23  1  0.903184  0.750000  0.861422  1
  O  O24  1  0.051794  0.750000  0.217886  1
  O  O25  1  0.053331  0.750000  0.547818  1
  O  O26  1  0.053531  0.750000  0.885013  1
  O  O27  1  0.118601  0.250000  0.242265  1
  O  O28  1  0.114648  0.250000  0.578409  1
  O  O29  1  0.119003  0.250000  0.910589  1
  O  O30  1  0.172619  0.043939  0.092134  1
  O  O31  1  0.170138  0.052264  0.424017  1
  O  O32  1  0.171603  0.047512  0.757680  1
  O  O33  1  0.172619  0.456061  0.092134  1
  O  O34  1  0.170138  0.447736  0.424017  1
  O  O35  1  0.171603  0.452488  0.757680  1
  O  O36  1  0.328397  0.547512  0.257680  1
  O  O37  1  0.327381  0.543939  0.592134  1
  O  O38  1  0.329862  0.552264  0.924017  1
  O  O39  1  0.328397  0.952488  0.257680  1
  O  O40  1  0.327381  0.956061  0.592134  1
  O  O41  1  0.329862  0.947736  0.924017  1
  O  O42  1  0.385352  0.750000  0.078409  1
  O  O43  1  0.380997  0.750000  0.410589  1
  O  O44  1  0.381399  0.750000  0.742265  1
  O  O45  1  0.446669  0.250000  0.047818  1
  O  O46  1  0.446469  0.250000  0.385013  1
  O  O47  1  0.448206  0.250000  0.717886  1
  O  O48  1  0.552750  0.750000  0.284491  1
  O  O49  1  0.551244  0.750000  0.613841  1
  O  O50  1  0.557175  0.750000  0.951482  1
  O  O51  1  0.618757  0.250000  0.258370  1
  O  O52  1  0.621460  0.250000  0.589464  1
  O  O53  1  0.618153  0.250000  0.921749  1
  O  O54  1  0.670541  0.049582  0.076315  1
  O  O55  1  0.671996  0.050118  0.411084  1
  O  O56  1  0.671959  0.045263  0.740156  1
  O  O57  1  0.670541  0.450418  0.076315  1
  O  O58  1  0.671996  0.449882  0.411084  1
  O  O59  1  0.671959  0.454736  0.740156  1
  O  O60  1  0.828041  0.545264  0.240156  1
  O  O61  1  0.829459  0.549582  0.576315  1
  O  O62  1  0.828004  0.550118  0.911084  1
  O  O63  1  0.828041  0.954736  0.240156  1
  O  O64  1  0.829459  0.950418  0.576315  1
  O  O65  1  0.828004  0.949882  0.911084  1
  O  O66  1  0.878540  0.750000  0.089464  1
  O  O67  1  0.881847  0.750000  0.421749  1
  O  O68  1  0.881243  0.750000  0.758370  1
  O  O69  1  0.948756  0.250000  0.113841  1
  O  O70  1  0.942825  0.250000  0.451482  1
  O  O71  1  0.947250  0.250000  0.784491  1
