# generated using pymatgen
data_V4CrCuO12
_symmetry_space_group_name_H-M   'P 1'
_cell_length_a   6.75402133
_cell_length_b   6.75402067
_cell_length_c   5.90867228
_cell_angle_alpha   75.24339718
_cell_angle_beta   104.75660337
_cell_angle_gamma   95.92253286
_symmetry_Int_Tables_number   1
_chemical_formula_structural   V4CrCuO12
_chemical_formula_sum   'V4 Cr1 Cu1 O12'
_cell_volume   251.83605329
_cell_formula_units_Z   1
loop_
 _symmetry_equiv_pos_site_id
 _symmetry_equiv_pos_as_xyz
  1  'x, y, z'
loop_
 _atom_site_type_symbol
 _atom_site_label
 _atom_site_symmetry_multiplicity
 _atom_site_fract_x
 _atom_site_fract_y
 _atom_site_fract_z
 _atom_site_occupancy
  V  V0  1  0.209822  0.608162  0.769154  1
  V  V1  1  0.386016  0.799478  0.254065  1
  V  V2  1  0.608162  0.209822  0.730846  1
  V  V3  1  0.799478  0.386016  0.245935  1
  Cr  Cr4  1  0.083122  0.083122  0.750000  1
  Cu  Cu5  1  0.906459  0.906459  0.250000  1
  O  O6  1  0.038243  0.800543  0.674782  1
  O  O7  1  0.091999  0.370326  0.788356  1
  O  O8  1  0.188336  0.969347  0.113430  1
  O  O9  1  0.361074  0.654800  0.551756  1
  O  O10  1  0.370326  0.091999  0.711644  1
  O  O11  1  0.367702  0.628584  0.056642  1
  O  O12  1  0.654800  0.361074  0.948244  1
  O  O13  1  0.617887  0.918097  0.280494  1
  O  O14  1  0.628584  0.367702  0.443358  1
  O  O15  1  0.800543  0.038243  0.825218  1
  O  O16  1  0.918097  0.617887  0.219506  1
  O  O17  1  0.969347  0.188336  0.386570  1
