# generated using pymatgen
data_LiSbTe2WO12
_symmetry_space_group_name_H-M   'P 1'
_cell_length_a   5.34219491
_cell_length_b   10.69453092
_cell_length_c   9.38181576
_cell_angle_alpha   28.78355169
_cell_angle_beta   52.33059090
_cell_angle_gamma   57.53169951
_symmetry_Int_Tables_number   1
_chemical_formula_structural   LiSbTe2WO12
_chemical_formula_sum   'Li1 Sb1 Te2 W1 O12'
_cell_volume   204.28786953
_cell_formula_units_Z   1
loop_
 _symmetry_equiv_pos_site_id
 _symmetry_equiv_pos_as_xyz
  1  'x, y, z'
loop_
 _atom_site_type_symbol
 _atom_site_label
 _atom_site_symmetry_multiplicity
 _atom_site_fract_x
 _atom_site_fract_y
 _atom_site_fract_z
 _atom_site_occupancy
  Li  Li0  1  0.763464  0.998942  0.763265  1
  Sb  Sb1  1  0.000977  0.498569  0.993646  1
  Te  Te2  1  0.491015  0.502434  0.497943  1
  Te  Te3  1  0.501923  0.000138  0.495093  1
  W  W4  1  0.988993  0.002562  0.998648  1
  O  O5  1  0.380149  0.308202  0.125178  1
  O  O6  1  0.239673  0.104479  0.645737  1
  O  O7  1  0.133954  0.305074  0.746926  1
  O  O8  1  0.871299  0.174503  0.263206  1
  O  O9  1  0.368196  0.808536  0.125485  1
  O  O10  1  0.737281  0.373863  0.380515  1
  O  O11  1  0.252304  0.630342  0.609867  1
  O  O12  1  0.632672  0.192896  0.857012  1
  O  O13  1  0.125406  0.818632  0.740622  1
  O  O14  1  0.854433  0.700956  0.237144  1
  O  O15  1  0.747673  0.884917  0.359020  1
  O  O16  1  0.617787  0.694956  0.867892  1
