# generated using pymatgen
data_Li2Fe2C2O7
_symmetry_space_group_name_H-M   'P 1'
_cell_length_a   10.66623364
_cell_length_b   6.04777932
_cell_length_c   9.61250279
_cell_angle_alpha   90.00000000
_cell_angle_beta   116.41010783
_cell_angle_gamma   90.00000000
_symmetry_Int_Tables_number   1
_chemical_formula_structural   Li2Fe2C2O7
_chemical_formula_sum   'Li8 Fe8 C8 O28'
_cell_volume   555.35890844
_cell_formula_units_Z   4
loop_
 _symmetry_equiv_pos_site_id
 _symmetry_equiv_pos_as_xyz
  1  'x, y, z'
loop_
 _atom_site_type_symbol
 _atom_site_label
 _atom_site_symmetry_multiplicity
 _atom_site_fract_x
 _atom_site_fract_y
 _atom_site_fract_z
 _atom_site_occupancy
  Li  Li0  1  0.356425  0.697740  0.933569  1
  Li  Li1  1  0.506022  0.042238  0.746365  1
  Li  Li2  1  0.493978  0.542238  0.753635  1
  Li  Li3  1  0.356425  0.802260  0.433569  1
  Li  Li4  1  0.643575  0.197740  0.566431  1
  Li  Li5  1  0.506022  0.457762  0.246365  1
  Li  Li6  1  0.493978  0.957762  0.253635  1
  Li  Li7  1  0.643575  0.302260  0.066431  1
  Fe  Fe8  1  0.974009  0.602498  0.763984  1
  Fe  Fe9  1  0.974009  0.897502  0.263984  1
  Fe  Fe10  1  0.158245  0.399886  0.588100  1
  Fe  Fe11  1  0.158245  0.100114  0.088100  1
  Fe  Fe12  1  0.841755  0.899886  0.911900  1
  Fe  Fe13  1  0.841755  0.600114  0.411900  1
  Fe  Fe14  1  0.025991  0.102498  0.736016  1
  Fe  Fe15  1  0.025991  0.397502  0.236016  1
  C  C16  1  0.360646  0.231105  0.939406  1
  C  C17  1  0.226008  0.863835  0.646241  1
  C  C18  1  0.360646  0.268895  0.439406  1
  C  C19  1  0.226008  0.636165  0.146241  1
  C  C20  1  0.773992  0.363835  0.853759  1
  C  C21  1  0.639354  0.731105  0.560594  1
  C  C22  1  0.773992  0.136165  0.353759  1
  C  C23  1  0.639354  0.768895  0.060594  1
  O  O24  1  0.017960  0.882735  0.880217  1
  O  O25  1  0.239757  0.163532  0.927080  1
  O  O26  1  0.203155  0.705070  0.724943  1
  O  O27  1  0.017960  0.617265  0.380217  1
  O  O28  1  0.143726  0.033217  0.605301  1
  O  O29  1  0.369871  0.315497  0.820428  1
  O  O30  1  0.239757  0.336468  0.427080  1
  O  O31  1  0.330663  0.845001  0.613495  1
  O  O32  1  0.203155  0.794930  0.224943  1
  O  O33  1  0.143726  0.466783  0.105301  1
  O  O34  1  0.470251  0.290070  0.572317  1
  O  O35  1  0.529749  0.790070  0.927683  1
  O  O36  1  0.369871  0.184503  0.320428  1
  O  O37  1  0.330663  0.654999  0.113495  1
  O  O38  1  0.669337  0.345001  0.886505  1
  O  O39  1  0.630129  0.815497  0.679572  1
  O  O40  1  0.470251  0.209930  0.072317  1
  O  O41  1  0.529749  0.709930  0.427683  1
  O  O42  1  0.856274  0.533217  0.894699  1
  O  O43  1  0.796845  0.205070  0.775057  1
  O  O44  1  0.669337  0.154999  0.386505  1
  O  O45  1  0.760243  0.663532  0.572920  1
  O  O46  1  0.630129  0.684503  0.179572  1
  O  O47  1  0.856274  0.966783  0.394699  1
  O  O48  1  0.982040  0.382735  0.619783  1
  O  O49  1  0.796845  0.294930  0.275057  1
  O  O50  1  0.760243  0.836468  0.072920  1
  O  O51  1  0.982040  0.117265  0.119783  1
