# generated using pymatgen
data_VFe(P2O7)2
_symmetry_space_group_name_H-M   'P 1'
_cell_length_a   4.86192437
_cell_length_b   8.01126186
_cell_length_c   7.01455472
_cell_angle_alpha   90.52010317
_cell_angle_beta   107.78102767
_cell_angle_gamma   89.38229151
_symmetry_Int_Tables_number   1
_chemical_formula_structural   VFe(P2O7)2
_chemical_formula_sum   'V1 Fe1 P4 O14'
_cell_volume   260.14656517
_cell_formula_units_Z   1
loop_
 _symmetry_equiv_pos_site_id
 _symmetry_equiv_pos_as_xyz
  1  'x, y, z'
loop_
 _atom_site_type_symbol
 _atom_site_label
 _atom_site_symmetry_multiplicity
 _atom_site_fract_x
 _atom_site_fract_y
 _atom_site_fract_z
 _atom_site_occupancy
  V  V0  1  0.209752  0.505445  0.720430  1
  Fe  Fe1  1  0.787282  0.008053  0.272266  1
  P  P2  1  0.402278  0.174997  0.522813  1
  P  P3  1  0.224081  0.778934  0.089596  1
  P  P4  1  0.780467  0.281615  0.911065  1
  P  P5  1  0.599986  0.683673  0.477355  1
  O  O6  1  0.040483  0.340414  0.848750  1
  O  O7  1  0.159735  0.669793  0.895232  1
  O  O8  1  0.173508  0.042899  0.477984  1
  O  O9  1  0.263445  0.351025  0.538208  1
  O  O10  1  0.393883  0.668500  0.607113  1
  O  O11  1  0.571662  0.433424  0.899547  1
  O  O12  1  0.607283  0.145811  0.750733  1
  O  O13  1  0.409191  0.642204  0.252202  1
  O  O14  1  0.409529  0.928003  0.083476  1
  O  O15  1  0.589484  0.186446  0.387042  1
  O  O16  1  0.724199  0.855744  0.486685  1
  O  O17  1  0.834966  0.545734  0.534458  1
  O  O18  1  0.872225  0.195684  0.109798  1
  O  O19  1  0.946612  0.819838  0.135100  1
