# generated using pymatgen
data_Li3Ti(FeO2)4
_symmetry_space_group_name_H-M   'P 1'
_cell_length_a   6.02599057
_cell_length_b   6.02599036
_cell_length_c   6.02042151
_cell_angle_alpha   91.11835974
_cell_angle_beta   60.42955651
_cell_angle_gamma   60.82603383
_symmetry_Int_Tables_number   1
_chemical_formula_structural   Li3Ti(FeO2)4
_chemical_formula_sum   'Li3 Ti1 Fe4 O8'
_cell_volume   155.98174270
_cell_formula_units_Z   1
loop_
 _symmetry_equiv_pos_site_id
 _symmetry_equiv_pos_as_xyz
  1  'x, y, z'
loop_
 _atom_site_type_symbol
 _atom_site_label
 _atom_site_symmetry_multiplicity
 _atom_site_fract_x
 _atom_site_fract_y
 _atom_site_fract_z
 _atom_site_occupancy
  Li  Li0  1  0.000000  0.000000  0.500000  1
  Li  Li1  1  0.500000  0.000000  0.500000  1
  Li  Li2  1  0.500000  0.500000  0.500000  1
  Ti  Ti3  1  0.500000  0.500000  0.000000  1
  Fe  Fe4  1  0.000000  0.500000  0.500000  1
  Fe  Fe5  1  0.000000  0.000000  0.000000  1
  Fe  Fe6  1  0.500000  0.000000  0.000000  1
  Fe  Fe7  1  0.000000  0.500000  0.000000  1
  O  O8  1  0.488965  0.266732  0.777768  1
  O  O9  1  0.971773  0.267227  0.751229  1
  O  O10  1  0.515998  0.723001  0.751229  1
  O  O11  1  0.000438  0.745310  0.744871  1
  O  O12  1  0.999562  0.254690  0.255129  1
  O  O13  1  0.484002  0.276999  0.248771  1
  O  O14  1  0.028227  0.732773  0.248771  1
  O  O15  1  0.511035  0.733268  0.222232  1
