# generated using pymatgen
data_Li10Fe3Co3(NiO8)2
_symmetry_space_group_name_H-M   'P 1'
_cell_length_a   5.87684892
_cell_length_b   5.90002112
_cell_length_c   9.71588983
_cell_angle_alpha   90.73519120
_cell_angle_beta   89.50907972
_cell_angle_gamma   120.24973467
_symmetry_Int_Tables_number   1
_chemical_formula_structural   Li10Fe3Co3(NiO8)2
_chemical_formula_sum   'Li10 Fe3 Co3 Ni2 O16'
_cell_volume   290.98851912
_cell_formula_units_Z   1
loop_
 _symmetry_equiv_pos_site_id
 _symmetry_equiv_pos_as_xyz
  1  'x, y, z'
loop_
 _atom_site_type_symbol
 _atom_site_label
 _atom_site_symmetry_multiplicity
 _atom_site_fract_x
 _atom_site_fract_y
 _atom_site_fract_z
 _atom_site_occupancy
  Li  Li0  1  0.012139  0.992340  0.514075  1
  Li  Li1  1  0.996271  0.982624  0.019931  1
  Li  Li2  1  0.379591  0.181524  0.942183  1
  Li  Li3  1  0.181992  0.365669  0.441564  1
  Li  Li4  1  0.801409  0.578051  0.947265  1
  Li  Li5  1  0.811672  0.176455  0.943375  1
  Li  Li6  1  0.189285  0.772895  0.443380  1
  Li  Li7  1  0.673478  0.317937  0.717651  1
  Li  Li8  1  0.325853  0.645147  0.217729  1
  Li  Li9  1  0.612500  0.799190  0.436206  1
  Fe  Fe10  1  0.174144  0.820268  0.715748  1
  Fe  Fe11  1  0.668927  0.820097  0.713838  1
  Fe  Fe12  1  0.824027  0.641712  0.216284  1
  Co  Co13  1  0.176170  0.328782  0.713023  1
  Co  Co14  1  0.329913  0.151446  0.213046  1
  Co  Co15  1  0.825944  0.151575  0.212661  1
  Ni  Ni16  1  0.337786  0.660994  0.972722  1
  Ni  Ni17  1  0.663230  0.320998  0.468733  1
  O  O18  1  0.012582  0.007086  0.825750  1
  O  O19  1  0.997763  0.996859  0.321226  1
  O  O20  1  0.157021  0.304612  0.101393  1
  O  O21  1  0.331110  0.157789  0.600167  1
  O  O22  1  0.022390  0.493608  0.832072  1
  O  O23  1  0.503243  0.007572  0.327082  1
  O  O24  1  0.656489  0.304596  0.100710  1
  O  O25  1  0.336824  0.648686  0.595347  1
  O  O26  1  0.493172  0.497368  0.832346  1
  O  O27  1  0.495322  0.468988  0.330737  1
  O  O28  1  0.851829  0.156234  0.596620  1
  O  O29  1  0.159277  0.824309  0.097320  1
  O  O30  1  0.977793  0.468446  0.329393  1
  O  O31  1  0.498296  0.977909  0.833186  1
  O  O32  1  0.849094  0.667688  0.591359  1
  O  O33  1  0.672250  0.825373  0.098499  1
