# generated using pymatgen
data_Li2Cr3WO8
_symmetry_space_group_name_H-M   'P 1'
_cell_length_a   5.96332398
_cell_length_b   5.96270323
_cell_length_c   9.63673533
_cell_angle_alpha   89.91665846
_cell_angle_beta   90.04166226
_cell_angle_gamma   119.99656471
_symmetry_Int_Tables_number   1
_chemical_formula_structural   Li2Cr3WO8
_chemical_formula_sum   'Li4 Cr6 W2 O16'
_cell_volume   296.76093823
_cell_formula_units_Z   2
loop_
 _symmetry_equiv_pos_site_id
 _symmetry_equiv_pos_as_xyz
  1  'x, y, z'
loop_
 _atom_site_type_symbol
 _atom_site_label
 _atom_site_symmetry_multiplicity
 _atom_site_fract_x
 _atom_site_fract_y
 _atom_site_fract_z
 _atom_site_occupancy
  Li  Li0  1  0.333659  0.666806  0.901958  1
  Li  Li1  1  0.000266  0.000805  0.992311  1
  Li  Li2  1  0.999734  0.000539  0.492311  1
  Li  Li3  1  0.666341  0.333147  0.401958  1
  Cr  Cr4  1  0.167811  0.829198  0.212441  1
  Cr  Cr5  1  0.170635  0.338677  0.214670  1
  Cr  Cr6  1  0.660867  0.828152  0.213316  1
  Cr  Cr7  1  0.339133  0.167286  0.713316  1
  Cr  Cr8  1  0.832189  0.661387  0.712441  1
  Cr  Cr9  1  0.829365  0.168042  0.714670  1
  W  W10  1  0.333045  0.666213  0.487325  1
  W  W11  1  0.666955  0.333168  0.987325  1
  O  O12  1  0.166785  0.835267  0.595826  1
  O  O13  1  0.038944  0.519972  0.343017  1
  O  O14  1  0.332765  0.665849  0.107798  1
  O  O15  1  0.999357  0.999051  0.307253  1
  O  O16  1  0.000643  0.999695  0.807253  1
  O  O17  1  0.170309  0.339666  0.595056  1
  O  O18  1  0.478237  0.957716  0.344952  1
  O  O19  1  0.481066  0.519306  0.341618  1
  O  O20  1  0.334333  0.167507  0.096377  1
  O  O21  1  0.665667  0.833174  0.596377  1
  O  O22  1  0.521763  0.479478  0.844952  1
  O  O23  1  0.518933  0.038239  0.841618  1
  O  O24  1  0.667235  0.333084  0.607798  1
  O  O25  1  0.833215  0.668483  0.095826  1
  O  O26  1  0.961056  0.481028  0.843017  1
  O  O27  1  0.829691  0.169358  0.095056  1
