# generated using pymatgen
data_Li4Mn2VNi3(PO4)6
_symmetry_space_group_name_H-M   'P 1'
_cell_length_a   8.47454819
_cell_length_b   8.82226217
_cell_length_c   8.80750644
_cell_angle_alpha   60.09156245
_cell_angle_beta   59.35910388
_cell_angle_gamma   59.47725700
_symmetry_Int_Tables_number   1
_chemical_formula_structural   Li4Mn2VNi3(PO4)6
_chemical_formula_sum   'Li4 Mn2 V1 Ni3 P6 O24'
_cell_volume   461.79792855
_cell_formula_units_Z   1
loop_
 _symmetry_equiv_pos_site_id
 _symmetry_equiv_pos_as_xyz
  1  'x, y, z'
loop_
 _atom_site_type_symbol
 _atom_site_label
 _atom_site_symmetry_multiplicity
 _atom_site_fract_x
 _atom_site_fract_y
 _atom_site_fract_z
 _atom_site_occupancy
  Li  Li0  1  0.251932  0.848495  0.647666  1
  Li  Li1  1  0.785723  0.148768  0.353533  1
  Li  Li2  1  0.787264  0.711124  0.146784  1
  Li  Li3  1  0.787847  0.354728  0.710324  1
  Mn  Mn4  1  0.016565  0.997559  0.002175  1
  Mn  Mn5  1  0.493348  0.495323  0.499789  1
  V  V6  1  0.552106  0.152382  0.148105  1
  Ni  Ni7  1  0.064664  0.643353  0.647841  1
  Ni  Ni8  1  0.438333  0.851586  0.853738  1
  Ni  Ni9  1  0.941773  0.353224  0.350223  1
  P  P10  1  0.241632  0.254492  0.549852  1
  P  P11  1  0.243072  0.954784  0.251507  1
  P  P12  1  0.242749  0.551436  0.953868  1
  P  P13  1  0.745915  0.456078  0.043060  1
  P  P14  1  0.757102  0.041972  0.752735  1
  P  P15  1  0.736527  0.755981  0.456936  1
  O  O16  1  0.052710  0.107225  0.312674  1
  O  O17  1  0.053002  0.524315  0.105351  1
  O  O18  1  0.050709  0.322572  0.520640  1
  O  O19  1  0.231519  0.085514  0.731123  1
  O  O20  1  0.423240  0.190131  0.382053  1
  O  O21  1  0.274829  0.405716  0.557356  1
  O  O22  1  0.236847  0.928164  0.096012  1
  O  O23  1  0.278289  0.773185  0.416520  1
  O  O24  1  0.562384  0.606252  0.009995  1
  O  O25  1  0.278036  0.561828  0.758400  1
  O  O26  1  0.756535  0.253002  0.079149  1
  O  O27  1  0.584715  0.992964  0.811237  1
  O  O28  1  0.424532  0.011953  0.180478  1
  O  O29  1  0.228664  0.744834  0.927570  1
  O  O30  1  0.730502  0.431711  0.240378  1
  O  O31  1  0.424789  0.387434  0.003450  1
  O  O32  1  0.735307  0.237623  0.594081  1
  O  O33  1  0.757516  0.082237  0.911529  1
  O  O34  1  0.731738  0.596456  0.426951  1
  O  O35  1  0.540942  0.814203  0.604873  1
  O  O36  1  0.753332  0.914595  0.255613  1
  O  O37  1  0.913345  0.710802  0.493903  1
  O  O38  1  0.934344  0.476977  0.887552  1
  O  O39  1  0.955622  0.892021  0.701976  1
