# generated using pymatgen
data_Li3Mn4(FeO6)2
_symmetry_space_group_name_H-M   'P 1'
_cell_length_a   5.94560614
_cell_length_b   5.93080353
_cell_length_c   14.45116981
_cell_angle_alpha   89.91218175
_cell_angle_beta   91.05181804
_cell_angle_gamma   60.50690995
_symmetry_Int_Tables_number   1
_chemical_formula_structural   Li3Mn4(FeO6)2
_chemical_formula_sum   'Li6 Mn8 Fe4 O24'
_cell_volume   443.43897716
_cell_formula_units_Z   2
loop_
 _symmetry_equiv_pos_site_id
 _symmetry_equiv_pos_as_xyz
  1  'x, y, z'
loop_
 _atom_site_type_symbol
 _atom_site_label
 _atom_site_symmetry_multiplicity
 _atom_site_fract_x
 _atom_site_fract_y
 _atom_site_fract_z
 _atom_site_occupancy
  Li  Li0  1  0.678773  0.664688  0.079959  1
  Li  Li1  1  0.006930  0.985883  0.003341  1
  Li  Li2  1  0.654085  0.667924  0.336332  1
  Li  Li3  1  0.345915  0.332076  0.413668  1
  Li  Li4  1  0.321227  0.335312  0.670041  1
  Li  Li5  1  0.993070  0.014117  0.746659  1
  Mn  Mn6  1  0.346629  0.323662  0.041434  1
  Mn  Mn7  1  0.168765  0.663260  0.207749  1
  Mn  Mn8  1  0.669089  0.163041  0.208885  1
  Mn  Mn9  1  0.330911  0.836959  0.541115  1
  Mn  Mn10  1  0.831235  0.336740  0.542251  1
  Mn  Mn11  1  0.653371  0.676338  0.708566  1
  Mn  Mn12  1  0.000000  0.000000  0.375000  1
  Mn  Mn13  1  0.500000  0.000000  0.875000  1
  Fe  Fe14  1  0.830702  0.835975  0.541717  1
  Fe  Fe15  1  0.169298  0.164025  0.208283  1
  Fe  Fe16  1  0.000000  0.500000  0.875000  1
  Fe  Fe17  1  0.500000  0.500000  0.875000  1
  O  O18  1  0.825427  0.871288  0.294567  1
  O  O19  1  0.289783  0.846125  0.291373  1
  O  O20  1  0.051193  0.476646  0.123250  1
  O  O21  1  0.515813  0.452854  0.122820  1
  O  O22  1  0.347824  0.333543  0.276797  1
  O  O23  1  0.152460  0.703282  0.461285  1
  O  O24  1  0.493659  0.029052  0.129483  1
  O  O25  1  0.989221  0.995063  0.140076  1
  O  O26  1  0.652176  0.666457  0.473203  1
  O  O27  1  0.847540  0.296718  0.288715  1
  O  O28  1  0.506341  0.970948  0.620517  1
  O  O29  1  0.484187  0.547146  0.627180  1
  O  O30  1  0.948807  0.523354  0.626750  1
  O  O31  1  0.799899  0.831541  0.793731  1
  O  O32  1  0.364919  0.828609  0.794308  1
  O  O33  1  0.174573  0.128712  0.455433  1
  O  O34  1  0.710217  0.153875  0.458627  1
  O  O35  1  0.806080  0.377113  0.790288  1
  O  O36  1  0.665670  0.677802  0.945306  1
  O  O37  1  0.010779  0.004937  0.609924  1
  O  O38  1  0.334330  0.322198  0.804694  1
  O  O39  1  0.193920  0.622887  0.959712  1
  O  O40  1  0.635081  0.171391  0.955692  1
  O  O41  1  0.200101  0.168459  0.956269  1
