# generated using pymatgen
data_LiMnF4
_symmetry_space_group_name_H-M   'P 1'
_cell_length_a   6.36073362
_cell_length_b   5.50277039
_cell_length_c   10.24958871
_cell_angle_alpha   90.03140544
_cell_angle_beta   144.49363896
_cell_angle_gamma   64.32349794
_symmetry_Int_Tables_number   1
_chemical_formula_structural   LiMnF4
_chemical_formula_sum   'Li2 Mn2 F8'
_cell_volume   138.92921520
_cell_formula_units_Z   2
loop_
 _symmetry_equiv_pos_site_id
 _symmetry_equiv_pos_as_xyz
  1  'x, y, z'
loop_
 _atom_site_type_symbol
 _atom_site_label
 _atom_site_symmetry_multiplicity
 _atom_site_fract_x
 _atom_site_fract_y
 _atom_site_fract_z
 _atom_site_occupancy
  Li  Li0  1  0.006601  0.068260  0.750668  1
  Li  Li1  1  0.009376  0.926869  0.253036  1
  Mn  Mn2  1  0.997932  0.506323  0.496531  1
  Mn  Mn3  1  0.994911  0.502785  0.995279  1
  F  F4  1  0.339542  0.204821  0.023727  1
  F  F5  1  0.420988  0.672408  0.106009  1
  F  F6  1  0.340861  0.460715  0.523856  1
  F  F7  1  0.419492  0.913657  0.605025  1
  F  F8  1  0.567014  0.359601  0.881353  1
  F  F9  1  0.660448  0.818308  0.967965  1
  F  F10  1  0.567627  0.083482  0.382392  1
  F  F11  1  0.663640  0.528730  0.469838  1
