# generated using pymatgen
data_TiCr3(PO4)6
_symmetry_space_group_name_H-M   'P 1'
_cell_length_a   8.80901767
_cell_length_b   8.80901771
_cell_length_c   8.80901795
_cell_angle_alpha   58.42045371
_cell_angle_beta   58.42045655
_cell_angle_gamma   58.42045540
_symmetry_Int_Tables_number   1
_chemical_formula_structural   TiCr3(PO4)6
_chemical_formula_sum   'Ti1 Cr3 P6 O24'
_cell_volume   465.88328235
_cell_formula_units_Z   1
loop_
 _symmetry_equiv_pos_site_id
 _symmetry_equiv_pos_as_xyz
  1  'x, y, z'
loop_
 _atom_site_type_symbol
 _atom_site_label
 _atom_site_symmetry_multiplicity
 _atom_site_fract_x
 _atom_site_fract_y
 _atom_site_fract_z
 _atom_site_occupancy
  Ti  Ti0  1  0.859524  0.859524  0.859524  1
  Cr  Cr1  1  0.142861  0.142861  0.142861  1
  Cr  Cr2  1  0.357221  0.357221  0.357221  1
  Cr  Cr3  1  0.642881  0.642881  0.642881  1
  P  P4  1  0.033975  0.750741  0.464813  1
  P  P5  1  0.464813  0.033975  0.750741  1
  P  P6  1  0.750741  0.464813  0.033975  1
  P  P7  1  0.254174  0.530374  0.966922  1
  P  P8  1  0.530374  0.966922  0.254174  1
  P  P9  1  0.966922  0.254174  0.530374  1
  O  O10  1  0.137404  0.283324  0.504757  1
  O  O11  1  0.283324  0.504757  0.137404  1
  O  O12  1  0.062754  0.922826  0.280884  1
  O  O13  1  0.504757  0.137404  0.283324  1
  O  O14  1  0.217306  0.578450  0.433821  1
  O  O15  1  0.005818  0.778326  0.637593  1
  O  O16  1  0.280884  0.062754  0.922826  1
  O  O17  1  0.433821  0.217306  0.578450  1
  O  O18  1  0.578450  0.433821  0.217306  1
  O  O19  1  0.224591  0.360245  0.992246  1
  O  O20  1  0.079458  0.711833  0.939613  1
  O  O21  1  0.360245  0.992246  0.224591  1
  O  O22  1  0.637593  0.005818  0.778326  1
  O  O23  1  0.922826  0.280884  0.062754  1
  O  O24  1  0.778326  0.637593  0.005818  1
  O  O25  1  0.427435  0.557653  0.784951  1
  O  O26  1  0.557653  0.784951  0.427435  1
  O  O27  1  0.711833  0.939613  0.079458  1
  O  O28  1  0.992246  0.224591  0.360245  1
  O  O29  1  0.784951  0.427435  0.557653  1
  O  O30  1  0.490381  0.862841  0.722000  1
  O  O31  1  0.939613  0.079458  0.711833  1
  O  O32  1  0.722000  0.490381  0.862841  1
  O  O33  1  0.862841  0.722000  0.490381  1
