# generated using pymatgen
data_V4O5F7
_symmetry_space_group_name_H-M   'P 1'
_cell_length_a   5.18751515
_cell_length_b   5.39628060
_cell_length_c   9.06078973
_cell_angle_alpha   73.56155665
_cell_angle_beta   90.21197679
_cell_angle_gamma   60.27944438
_symmetry_Int_Tables_number   1
_chemical_formula_structural   V4O5F7
_chemical_formula_sum   'V4 O5 F7'
_cell_volume   208.09092420
_cell_formula_units_Z   1
loop_
 _symmetry_equiv_pos_site_id
 _symmetry_equiv_pos_as_xyz
  1  'x, y, z'
loop_
 _atom_site_type_symbol
 _atom_site_label
 _atom_site_symmetry_multiplicity
 _atom_site_fract_x
 _atom_site_fract_y
 _atom_site_fract_z
 _atom_site_occupancy
  V  V0  1  0.732961  0.517496  0.263807  1
  V  V1  1  0.470318  0.002060  0.497337  1
  V  V2  1  0.292805  0.497432  0.759020  1
  V  V3  1  0.034432  0.990445  0.004438  1
  O  O4  1  0.552644  0.733383  0.374812  1
  O  O5  1  0.403783  0.756033  0.079999  1
  O  O6  1  0.413841  0.731714  0.670794  1
  O  O7  1  0.574514  0.253303  0.911207  1
  O  O8  1  0.100923  0.234025  0.416800  1
  F  F9  1  0.906779  0.754748  0.584876  1
  F  F10  1  0.914537  0.759142  0.168827  1
  F  F11  1  0.954327  0.267471  0.120374  1
  F  F12  1  0.586962  0.239671  0.329556  1
  F  F13  1  0.457712  0.256544  0.624511  1
  F  F14  1  0.026402  0.749274  0.871517  1
  F  F15  1  0.077061  0.257258  0.822125  1
