# generated using pymatgen
data_Fe2C2O7
_symmetry_space_group_name_H-M   'P 1'
_cell_length_a   11.53424961
_cell_length_b   6.72576978
_cell_length_c   9.67345219
_cell_angle_alpha   90.00000000
_cell_angle_beta   50.10347087
_cell_angle_gamma   90.00000000
_symmetry_Int_Tables_number   1
_chemical_formula_structural   Fe2C2O7
_chemical_formula_sum   'Fe8 C8 O28'
_cell_volume   575.73641054
_cell_formula_units_Z   4
loop_
 _symmetry_equiv_pos_site_id
 _symmetry_equiv_pos_as_xyz
  1  'x, y, z'
loop_
 _atom_site_type_symbol
 _atom_site_label
 _atom_site_symmetry_multiplicity
 _atom_site_fract_x
 _atom_site_fract_y
 _atom_site_fract_z
 _atom_site_occupancy
  Fe  Fe0  1  0.255551  0.060879  0.896180  1
  Fe  Fe1  1  0.027690  0.111820  0.720079  1
  Fe  Fe2  1  0.255551  0.439121  0.396180  1
  Fe  Fe3  1  0.027690  0.388180  0.220079  1
  Fe  Fe4  1  0.972310  0.611820  0.779921  1
  Fe  Fe5  1  0.744449  0.560879  0.603820  1
  Fe  Fe6  1  0.972310  0.888180  0.279921  1
  Fe  Fe7  1  0.744449  0.939121  0.103820  1
  C  C8  1  0.206374  0.691125  0.942125  1
  C  C9  1  0.324488  0.234636  0.615547  1
  C  C10  1  0.206374  0.808875  0.442125  1
  C  C11  1  0.675512  0.734636  0.884453  1
  C  C12  1  0.324488  0.265364  0.115547  1
  C  C13  1  0.793626  0.191125  0.557875  1
  C  C14  1  0.675512  0.765364  0.384453  1
  C  C15  1  0.793626  0.308875  0.057875  1
  O  O16  1  0.947577  0.874623  0.878745  1
  O  O17  1  0.152018  0.512963  0.976822  1
  O  O18  1  0.365077  0.177091  0.974520  1
  O  O19  1  0.182283  0.169121  0.745328  1
  O  O20  1  0.274658  0.779056  0.791323  1
  O  O21  1  0.947577  0.625377  0.378745  1
  O  O22  1  0.152018  0.987037  0.476822  1
  O  O23  1  0.188144  0.699230  0.569319  1
  O  O24  1  0.588176  0.696177  0.848411  1
  O  O25  1  0.411824  0.196177  0.651589  1
  O  O26  1  0.365077  0.322909  0.474520  1
  O  O27  1  0.811856  0.199230  0.930681  1
  O  O28  1  0.182283  0.330879  0.245328  1
  O  O29  1  0.725342  0.279056  0.708677  1
  O  O30  1  0.274658  0.720944  0.291323  1
  O  O31  1  0.817717  0.669121  0.754672  1
  O  O32  1  0.188144  0.800770  0.069319  1
  O  O33  1  0.634923  0.677091  0.525480  1
  O  O34  1  0.588176  0.803823  0.348411  1
  O  O35  1  0.411824  0.303823  0.151589  1
  O  O36  1  0.811856  0.300770  0.430681  1
  O  O37  1  0.847982  0.012963  0.523178  1
  O  O38  1  0.052423  0.374623  0.621255  1
  O  O39  1  0.725342  0.220944  0.208677  1
  O  O40  1  0.817717  0.830879  0.254672  1
  O  O41  1  0.634923  0.822909  0.025480  1
  O  O42  1  0.847982  0.487037  0.023178  1
  O  O43  1  0.052423  0.125377  0.121255  1
