# generated using pymatgen
data_LiCr(PO3)5
_symmetry_space_group_name_H-M   'P 1'
_cell_length_a   12.42480009
_cell_length_b   9.69934146
_cell_length_c   5.26269020
_cell_angle_alpha   90.00000000
_cell_angle_beta   94.27640329
_cell_angle_gamma   90.00000000
_symmetry_Int_Tables_number   1
_chemical_formula_structural   LiCr(PO3)5
_chemical_formula_sum   'Li2 Cr2 P10 O30'
_cell_volume   632.45360127
_cell_formula_units_Z   2
loop_
 _symmetry_equiv_pos_site_id
 _symmetry_equiv_pos_as_xyz
  1  'x, y, z'
loop_
 _atom_site_type_symbol
 _atom_site_label
 _atom_site_symmetry_multiplicity
 _atom_site_fract_x
 _atom_site_fract_y
 _atom_site_fract_z
 _atom_site_occupancy
  Li  Li0  1  0.567322  0.392454  0.618030  1
  Li  Li1  1  0.067322  0.607546  0.118030  1
  Cr  Cr2  1  0.495613  0.996537  0.506884  1
  Cr  Cr3  1  0.995613  0.003463  0.006884  1
  P  P4  1  0.411574  0.175929  0.007090  1
  P  P5  1  0.580743  0.822023  0.009135  1
  P  P6  1  0.143480  0.472172  0.610232  1
  P  P7  1  0.080743  0.177977  0.509135  1
  P  P8  1  0.643480  0.527828  0.110232  1
  P  P9  1  0.245767  0.016796  0.257334  1
  P  P10  1  0.359901  0.469611  0.885015  1
  P  P11  1  0.859901  0.530389  0.385015  1
  P  P12  1  0.911574  0.824071  0.507090  1
  P  P13  1  0.745767  0.983204  0.757334  1
  O  O14  1  0.252748  0.406578  0.741808  1
  O  O15  1  0.651499  0.059207  0.624139  1
  O  O16  1  0.292205  0.118871  0.047376  1
  O  O17  1  0.999742  0.130698  0.299310  1
  O  O18  1  0.056743  0.152267  0.781584  1
  O  O19  1  0.839706  0.060261  0.887710  1
  O  O20  1  0.339706  0.939739  0.387710  1
  O  O21  1  0.438125  0.151852  0.734407  1
  O  O22  1  0.339790  0.589152  0.055489  1
  O  O23  1  0.700080  0.881579  0.966287  1
  O  O24  1  0.662515  0.417528  0.918458  1
  O  O25  1  0.599463  0.662981  0.958028  1
  O  O26  1  0.151499  0.940793  0.124139  1
  O  O27  1  0.572781  0.489674  0.315827  1
  O  O28  1  0.396056  0.336103  0.056108  1
  O  O29  1  0.896056  0.663897  0.556108  1
  O  O30  1  0.938125  0.848148  0.234407  1
  O  O31  1  0.200080  0.118421  0.466287  1
  O  O32  1  0.556743  0.847733  0.281584  1
  O  O33  1  0.792205  0.881129  0.547376  1
  O  O34  1  0.938948  0.505127  0.189302  1
  O  O35  1  0.099463  0.337019  0.458028  1
  O  O36  1  0.492491  0.128314  0.217476  1
  O  O37  1  0.499742  0.869302  0.799310  1
  O  O38  1  0.072781  0.510326  0.815827  1
  O  O39  1  0.752748  0.593422  0.241808  1
  O  O40  1  0.162515  0.582472  0.418458  1
  O  O41  1  0.438948  0.494873  0.689302  1
  O  O42  1  0.839790  0.410848  0.555489  1
  O  O43  1  0.992491  0.871686  0.717476  1
