# generated using pymatgen
data_Li4Mn2Fe3P6WO24
_symmetry_space_group_name_H-M   'P 1'
_cell_length_a   8.58273293
_cell_length_b   9.09724114
_cell_length_c   9.08488579
_cell_angle_alpha   59.98931876
_cell_angle_beta   58.46173419
_cell_angle_gamma   58.85312239
_symmetry_Int_Tables_number   1
_chemical_formula_structural   Li4Mn2Fe3P6WO24
_chemical_formula_sum   'Li4 Mn2 Fe3 P6 W1 O24'
_cell_volume   491.10934294
_cell_formula_units_Z   1
loop_
 _symmetry_equiv_pos_site_id
 _symmetry_equiv_pos_as_xyz
  1  'x, y, z'
loop_
 _atom_site_type_symbol
 _atom_site_label
 _atom_site_symmetry_multiplicity
 _atom_site_fract_x
 _atom_site_fract_y
 _atom_site_fract_z
 _atom_site_occupancy
  Li  Li0  1  0.248001  0.847964  0.649578  1
  Li  Li1  1  0.787270  0.155419  0.355459  1
  Li  Li2  1  0.783449  0.707222  0.153565  1
  Li  Li3  1  0.781558  0.363703  0.701985  1
  Mn  Mn4  1  0.028772  0.990156  0.002436  1
  Mn  Mn5  1  0.489041  0.495683  0.501507  1
  Fe  Fe6  1  0.052714  0.645714  0.650277  1
  Fe  Fe7  1  0.448417  0.849741  0.851224  1
  Fe  Fe8  1  0.962598  0.347920  0.343413  1
  P  P9  1  0.240603  0.252773  0.556944  1
  P  P10  1  0.243584  0.946125  0.255743  1
  P  P11  1  0.243139  0.556524  0.946344  1
  P  P12  1  0.744650  0.454871  0.048271  1
  P  P13  1  0.755950  0.051125  0.748601  1
  P  P14  1  0.736507  0.753854  0.452734  1
  W  W15  1  0.557797  0.149938  0.146588  1
  O  O16  1  0.055359  0.100520  0.315368  1
  O  O17  1  0.052721  0.528133  0.098468  1
  O  O18  1  0.049482  0.323556  0.527565  1
  O  O19  1  0.229763  0.088173  0.734015  1
  O  O20  1  0.418253  0.187946  0.391618  1
  O  O21  1  0.275536  0.397290  0.565658  1
  O  O22  1  0.238417  0.922758  0.102100  1
  O  O23  1  0.270636  0.767308  0.415948  1
  O  O24  1  0.563039  0.599819  0.009977  1
  O  O25  1  0.273626  0.572595  0.754554  1
  O  O26  1  0.762276  0.253994  0.081355  1
  O  O27  1  0.582813  0.001561  0.812664  1
  O  O28  1  0.426194  0.994358  0.190437  1
  O  O29  1  0.227690  0.745321  0.923204  1
  O  O30  1  0.725864  0.431992  0.240776  1
  O  O31  1  0.422316  0.397867  0.991140  1
  O  O32  1  0.734947  0.240394  0.593153  1
  O  O33  1  0.758075  0.091813  0.901882  1
  O  O34  1  0.730525  0.597188  0.428017  1
  O  O35  1  0.540399  0.821393  0.595295  1
  O  O36  1  0.763816  0.902444  0.251582  1
  O  O37  1  0.910191  0.704543  0.494135  1
  O  O38  1  0.931632  0.481057  0.896054  1
  O  O39  1  0.952375  0.902247  0.697367  1
