# generated using pymatgen
data_Ba6Li2Ti7(Sb3O14)3
_symmetry_space_group_name_H-M   'P 1'
_cell_length_a   9.26635241
_cell_length_b   9.28450759
_cell_length_c   11.99199607
_cell_angle_alpha   90.12530128
_cell_angle_beta   89.93677059
_cell_angle_gamma   120.06584005
_symmetry_Int_Tables_number   1
_chemical_formula_structural   Ba6Li2Ti7(Sb3O14)3
_chemical_formula_sum   'Ba6 Li2 Ti7 Sb9 O42'
_cell_volume   892.89469959
_cell_formula_units_Z   1
loop_
 _symmetry_equiv_pos_site_id
 _symmetry_equiv_pos_as_xyz
  1  'x, y, z'
loop_
 _atom_site_type_symbol
 _atom_site_label
 _atom_site_symmetry_multiplicity
 _atom_site_fract_x
 _atom_site_fract_y
 _atom_site_fract_z
 _atom_site_occupancy
  Ba  Ba0  1  0.000024  0.596216  0.245258  1
  Ba  Ba1  1  0.999960  0.410367  0.752025  1
  Ba  Ba2  1  0.405996  0.404647  0.245394  1
  Ba  Ba3  1  0.599741  0.596784  0.750468  1
  Ba  Ba4  1  0.400292  0.997012  0.750496  1
  Ba  Ba5  1  0.594012  0.998669  0.245368  1
  Li  Li6  1  0.000025  0.000954  0.228256  1
  Li  Li7  1  0.999995  0.994744  0.736431  1
  Ti  Ti8  1  0.999974  0.746976  0.915238  1
  Ti  Ti9  1  0.000028  0.744181  0.600990  1
  Ti  Ti10  1  0.999981  0.257910  0.097484  1
  Ti  Ti11  1  0.257168  0.257929  0.597920  1
  Ti  Ti12  1  0.252670  0.992815  0.091816  1
  Ti  Ti13  1  0.747262  0.740117  0.091817  1
  Ti  Ti14  1  0.742760  0.000692  0.597904  1
  Sb  Sb15  1  0.999980  0.246747  0.415558  1
  Sb  Sb16  1  0.333100  0.666596  0.999537  1
  Sb  Sb17  1  0.333322  0.666866  0.499627  1
  Sb  Sb18  1  0.245924  0.244172  0.915870  1
  Sb  Sb19  1  0.244896  0.999387  0.413619  1
  Sb  Sb20  1  0.755169  0.754508  0.413625  1
  Sb  Sb21  1  0.666858  0.333476  0.999527  1
  Sb  Sb22  1  0.666721  0.333564  0.499617  1
  Sb  Sb23  1  0.754072  0.998233  0.915858  1
  O  O24  1  0.000048  0.795154  0.072495  1
  O  O25  1  0.000010  0.795563  0.426099  1
  O  O26  1  0.999938  0.791357  0.751683  1
  O  O27  1  0.169820  0.687434  0.602133  1
  O  O28  1  0.167627  0.689238  0.899343  1
  O  O29  1  0.999941  0.203459  0.249774  1
  O  O30  1  0.315879  0.829125  0.104888  1
  O  O31  1  0.316692  0.828679  0.393836  1
  O  O32  1  0.000046  0.201669  0.580408  1
  O  O33  1  0.000035  0.205939  0.927402  1
  O  O34  1  0.169445  0.483430  0.101984  1
  O  O35  1  0.170776  0.488526  0.393581  1
  O  O36  1  0.314345  0.487380  0.892738  1
  O  O37  1  0.313319  0.482925  0.601293  1
  O  O38  1  0.198528  0.201181  0.080549  1
  O  O39  1  0.204662  0.204756  0.427196  1
  O  O40  1  0.517661  0.830799  0.601301  1
  O  O41  1  0.509993  0.830378  0.892611  1
  O  O42  1  0.202507  0.200935  0.749282  1
  O  O43  1  0.512001  0.682493  0.393382  1
  O  O44  1  0.520213  0.685307  0.097290  1
  O  O45  1  0.198289  0.999633  0.579341  1
  O  O46  1  0.205931  0.003731  0.928214  1
  O  O47  1  0.202868  0.000979  0.247402  1
  O  O48  1  0.482265  0.313079  0.601181  1
  O  O49  1  0.489982  0.320401  0.892588  1
  O  O50  1  0.797239  0.798085  0.247417  1
  O  O51  1  0.479786  0.165090  0.097252  1
  O  O52  1  0.488098  0.170585  0.393329  1
  O  O53  1  0.801651  0.801332  0.579300  1
  O  O54  1  0.794039  0.797708  0.928252  1
  O  O55  1  0.684116  0.513239  0.104864  1
  O  O56  1  0.683305  0.511976  0.393829  1
  O  O57  1  0.830159  0.517611  0.602119  1
  O  O58  1  0.832351  0.521572  0.899349  1
  O  O59  1  0.686707  0.169632  0.601261  1
  O  O60  1  0.685645  0.173059  0.892741  1
  O  O61  1  0.829362  0.317936  0.393621  1
  O  O62  1  0.830547  0.313997  0.101966  1
  O  O63  1  0.797505  0.998408  0.749242  1
  O  O64  1  0.795247  0.000115  0.427212  1
  O  O65  1  0.801492  0.002644  0.080553  1
