# generated using pymatgen
data_V2O3F
_symmetry_space_group_name_H-M   'P 1'
_cell_length_a   10.23254219
_cell_length_b   5.78467323
_cell_length_c   4.76531574
_cell_angle_alpha   89.99828359
_cell_angle_beta   90.01225705
_cell_angle_gamma   90.00027745
_symmetry_Int_Tables_number   1
_chemical_formula_structural   V2O3F
_chemical_formula_sum   'V8 O12 F4'
_cell_volume   282.06814741
_cell_formula_units_Z   4
loop_
 _symmetry_equiv_pos_site_id
 _symmetry_equiv_pos_as_xyz
  1  'x, y, z'
loop_
 _atom_site_type_symbol
 _atom_site_label
 _atom_site_symmetry_multiplicity
 _atom_site_fract_x
 _atom_site_fract_y
 _atom_site_fract_z
 _atom_site_occupancy
  V  V0  1  0.025427  0.994121  0.056111  1
  V  V1  1  0.232397  0.756473  0.539250  1
  V  V2  1  0.267507  0.256444  0.039247  1
  V  V3  1  0.474493  0.494046  0.556267  1
  V  V4  1  0.525781  0.994264  0.443668  1
  V  V5  1  0.732545  0.756424  0.960743  1
  V  V6  1  0.767550  0.256463  0.460775  1
  V  V7  1  0.974294  0.494353  0.943928  1
  O  O8  1  0.082544  0.748155  0.791825  1
  O  O9  1  0.093805  0.251796  0.841493  1
  O  O10  1  0.167279  0.999777  0.270218  1
  O  O11  1  0.332677  0.499764  0.770311  1
  O  O12  1  0.406119  0.751756  0.341659  1
  O  O13  1  0.417416  0.248107  0.291852  1
  O  O14  1  0.582487  0.748050  0.708002  1
  O  O15  1  0.593770  0.251789  0.658221  1
  O  O16  1  0.667090  0.999732  0.229912  1
  O  O17  1  0.832965  0.499711  0.730096  1
  O  O18  1  0.906292  0.751853  0.158438  1
  O  O19  1  0.917564  0.248130  0.208126  1
  F  F20  1  0.167290  0.505645  0.273281  1
  F  F21  1  0.332543  0.005632  0.773403  1
  F  F22  1  0.667476  0.505624  0.226523  1
  F  F23  1  0.832688  0.005632  0.726653  1
