# generated using pymatgen
data_LiCu2F6
_symmetry_space_group_name_H-M   'P 1'
_cell_length_a   4.67186458
_cell_length_b   4.67201831
_cell_length_c   9.06660617
_cell_angle_alpha   89.98495501
_cell_angle_beta   89.99733031
_cell_angle_gamma   89.97040159
_symmetry_Int_Tables_number   1
_chemical_formula_structural   LiCu2F6
_chemical_formula_sum   'Li2 Cu4 F12'
_cell_volume   197.89711342
_cell_formula_units_Z   2
loop_
 _symmetry_equiv_pos_site_id
 _symmetry_equiv_pos_as_xyz
  1  'x, y, z'
loop_
 _atom_site_type_symbol
 _atom_site_label
 _atom_site_symmetry_multiplicity
 _atom_site_fract_x
 _atom_site_fract_y
 _atom_site_fract_z
 _atom_site_occupancy
  Li  Li0  1  0.999997  0.000004  0.999773  1
  Li  Li1  1  0.499996  0.499993  0.499770  1
  Cu  Cu2  1  0.000031  -0.000000  0.668690  1
  Cu  Cu3  1  0.999988  0.999973  0.331472  1
  Cu  Cu4  1  0.500033  0.500021  0.831457  1
  Cu  Cu5  1  0.499983  0.499984  0.168596  1
  F  F6  1  0.189726  0.810283  0.499965  1
  F  F7  1  0.197648  0.802364  0.828517  1
  F  F8  1  0.198831  0.801215  0.171603  1
  F  F9  1  0.301365  0.301393  0.671724  1
  F  F10  1  0.302420  0.302384  0.328316  1
  F  F11  1  0.310442  0.310481  0.999884  1
  F  F12  1  0.689544  0.689518  0.000033  1
  F  F13  1  0.698542  0.698548  0.671755  1
  F  F14  1  0.697732  0.697640  0.328286  1
  F  F15  1  0.801260  0.198778  0.171617  1
  F  F16  1  0.802237  0.197685  0.828492  1
  F  F17  1  0.810314  0.189646  0.500049  1
