# generated using pymatgen
data_Li4Ti3Nb2Cr3O16
_symmetry_space_group_name_H-M   'P 1'
_cell_length_a   5.99664118
_cell_length_b   5.98114160
_cell_length_c   9.74489855
_cell_angle_alpha   89.98815801
_cell_angle_beta   90.56660595
_cell_angle_gamma   119.89462619
_symmetry_Int_Tables_number   1
_chemical_formula_structural   Li4Ti3Nb2Cr3O16
_chemical_formula_sum   'Li4 Ti3 Nb2 Cr3 O16'
_cell_volume   302.99299233
_cell_formula_units_Z   1
loop_
 _symmetry_equiv_pos_site_id
 _symmetry_equiv_pos_as_xyz
  1  'x, y, z'
loop_
 _atom_site_type_symbol
 _atom_site_label
 _atom_site_symmetry_multiplicity
 _atom_site_fract_x
 _atom_site_fract_y
 _atom_site_fract_z
 _atom_site_occupancy
  Li  Li0  1  0.329224  0.664645  0.897841  1
  Li  Li1  1  -0.000347  0.999772  0.992060  1
  Li  Li2  1  0.996911  0.998467  0.494927  1
  Li  Li3  1  0.665831  0.332919  0.401952  1
  Ti  Ti4  1  0.342006  0.171008  0.721005  1
  Ti  Ti5  1  0.177048  0.835382  0.218848  1
  Ti  Ti6  1  0.177085  0.341800  0.218819  1
  Nb  Nb7  1  0.333236  0.666650  0.493014  1
  Nb  Nb8  1  0.676717  0.338410  0.990731  1
  Cr  Cr9  1  0.664009  0.831985  0.210915  1
  Cr  Cr10  1  0.831523  0.661098  0.712688  1
  Cr  Cr11  1  0.831536  0.170458  0.712673  1
  O  O12  1  0.167957  0.838393  0.597250  1
  O  O13  1  0.036548  0.518270  0.339733  1
  O  O14  1  0.324149  0.662072  0.107711  1
  O  O15  1  0.002709  0.001442  0.308978  1
  O  O16  1  0.007163  0.003555  0.807042  1
  O  O17  1  0.167968  0.329601  0.597220  1
  O  O18  1  0.475698  0.961684  0.337619  1
  O  O19  1  0.475767  0.514041  0.337599  1
  O  O20  1  0.328858  0.164446  0.100281  1
  O  O21  1  0.665652  0.832836  0.593875  1
  O  O22  1  0.513515  0.476034  0.839538  1
  O  O23  1  0.513558  0.037513  0.839536  1
  O  O24  1  0.652739  0.326429  0.607395  1
  O  O25  1  0.841827  0.670551  0.094142  1
  O  O26  1  0.959333  0.479623  0.840318  1
  O  O27  1  0.841781  0.171219  0.094131  1
