# generated using pymatgen
data_Li2FeCuO4
_symmetry_space_group_name_H-M   'P 1'
_cell_length_a   5.91981523
_cell_length_b   5.91981527
_cell_length_c   5.97655157
_cell_angle_alpha   120.16364653
_cell_angle_beta   120.16365336
_cell_angle_gamma   89.44650667
_symmetry_Int_Tables_number   1
_chemical_formula_structural   Li2FeCuO4
_chemical_formula_sum   'Li4 Fe2 Cu2 O8'
_cell_volume   148.07367450
_cell_formula_units_Z   2
loop_
 _symmetry_equiv_pos_site_id
 _symmetry_equiv_pos_as_xyz
  1  'x, y, z'
loop_
 _atom_site_type_symbol
 _atom_site_label
 _atom_site_symmetry_multiplicity
 _atom_site_fract_x
 _atom_site_fract_y
 _atom_site_fract_z
 _atom_site_occupancy
  Li  Li0  1  0.000000  0.500000  0.500000  1
  Li  Li1  1  0.500000  0.500000  0.500000  1
  Li  Li2  1  0.500000  0.000000  0.000000  1
  Li  Li3  1  0.500000  0.500000  0.000000  1
  Fe  Fe4  1  0.000000  0.500000  0.000000  1
  Fe  Fe5  1  0.500000  0.000000  0.500000  1
  Cu  Cu6  1  0.000000  0.000000  0.500000  1
  Cu  Cu7  1  0.000000  0.000000  0.000000  1
  O  O8  1  0.244697  0.755655  0.012256  1
  O  O9  1  0.244784  0.230358  0.489936  1
  O  O10  1  0.244345  0.755303  0.487744  1
  O  O11  1  0.769642  0.755216  0.010064  1
  O  O12  1  0.230358  0.244784  0.989936  1
  O  O13  1  0.755655  0.244697  0.512256  1
  O  O14  1  0.755216  0.769642  0.510064  1
  O  O15  1  0.755303  0.244345  0.987744  1
