# generated using pymatgen
data_LiFeSiO4
_symmetry_space_group_name_H-M   'P 1'
_cell_length_a   5.11424870
_cell_length_b   6.76798207
_cell_length_c   10.34517866
_cell_angle_alpha   89.99936003
_cell_angle_beta   90.00018692
_cell_angle_gamma   90.64010538
_symmetry_Int_Tables_number   1
_chemical_formula_structural   LiFeSiO4
_chemical_formula_sum   'Li4 Fe4 Si4 O16'
_cell_volume   358.05680727
_cell_formula_units_Z   4
loop_
 _symmetry_equiv_pos_site_id
 _symmetry_equiv_pos_as_xyz
  1  'x, y, z'
loop_
 _atom_site_type_symbol
 _atom_site_label
 _atom_site_symmetry_multiplicity
 _atom_site_fract_x
 _atom_site_fract_y
 _atom_site_fract_z
 _atom_site_occupancy
  Li  Li0  1  0.187490  0.992720  0.847129  1
  Li  Li1  1  0.312518  0.507280  0.347128  1
  Li  Li2  1  0.687484  0.492714  0.652871  1
  Li  Li3  1  0.812511  0.007281  0.152873  1
  Fe  Fe4  1  0.185908  0.491010  0.834326  1
  Fe  Fe5  1  0.314088  0.008990  0.334327  1
  Fe  Fe6  1  0.685913  0.991008  0.665670  1
  Fe  Fe7  1  0.814094  0.508989  0.165671  1
  Si  Si8  1  0.188533  0.235704  0.591549  1
  Si  Si9  1  0.311474  0.264304  0.091569  1
  Si  Si10  1  0.688536  0.735698  0.908456  1
  Si  Si11  1  0.811472  0.764289  0.408433  1
  O  O12  1  0.130883  0.774761  0.383728  1
  O  O13  1  0.178803  0.456598  0.163960  1
  O  O14  1  0.197214  0.063048  0.162630  1
  O  O15  1  0.241135  0.259637  0.936767  1
  O  O16  1  0.258869  0.240365  0.436782  1
  O  O17  1  0.302775  0.436970  0.662626  1
  O  O18  1  0.321205  0.043412  0.663971  1
  O  O19  1  0.369115  0.725236  0.883720  1
  O  O20  1  0.630875  0.274762  0.116277  1
  O  O21  1  0.678797  0.956580  0.336032  1
  O  O22  1  0.697230  0.563034  0.337377  1
  O  O23  1  0.741123  0.759632  0.563229  1
  O  O24  1  0.758864  0.740366  0.063213  1
  O  O25  1  0.802792  0.936959  0.837365  1
  O  O26  1  0.821203  0.543397  0.836034  1
  O  O27  1  0.869113  0.225234  0.616275  1
