# generated using pymatgen
data_V5CoO12
_symmetry_space_group_name_H-M   'P 1'
_cell_length_a   6.79555306
_cell_length_b   6.79555269
_cell_length_c   5.85730795
_cell_angle_alpha   75.18204994
_cell_angle_beta   104.81795114
_cell_angle_gamma   95.60531059
_symmetry_Int_Tables_number   1
_chemical_formula_structural   V5CoO12
_chemical_formula_sum   'V5 Co1 O12'
_cell_volume   252.64516830
_cell_formula_units_Z   1
loop_
 _symmetry_equiv_pos_site_id
 _symmetry_equiv_pos_as_xyz
  1  'x, y, z'
loop_
 _atom_site_type_symbol
 _atom_site_label
 _atom_site_symmetry_multiplicity
 _atom_site_fract_x
 _atom_site_fract_y
 _atom_site_fract_z
 _atom_site_occupancy
  V  V0  1  0.204876  0.610936  0.758081  1
  V  V1  1  0.391058  0.794561  0.263046  1
  V  V2  1  0.610936  0.204876  0.741919  1
  V  V3  1  0.794561  0.391058  0.236954  1
  V  V4  1  0.916828  0.916828  0.250000  1
  Co  Co5  1  0.087730  0.087730  0.750000  1
  O  O6  1  0.035879  0.808932  0.632054  1
  O  O7  1  0.088354  0.378517  0.777878  1
  O  O8  1  0.189643  0.964054  0.149745  1
  O  O9  1  0.371423  0.640509  0.559878  1
  O  O10  1  0.378517  0.088354  0.722122  1
  O  O11  1  0.347714  0.632713  0.051729  1
  O  O12  1  0.640509  0.371423  0.940122  1
  O  O13  1  0.632475  0.903799  0.284528  1
  O  O14  1  0.632713  0.347714  0.448271  1
  O  O15  1  0.808932  0.035879  0.867946  1
  O  O16  1  0.903799  0.632475  0.215472  1
  O  O17  1  0.964054  0.189643  0.350255  1
