# generated using pymatgen
data_MnCu3(PO4)4
_symmetry_space_group_name_H-M   'P 1'
_cell_length_a   4.88253015
_cell_length_b   9.74890536
_cell_length_c   5.94054339
_cell_angle_alpha   90.00000000
_cell_angle_beta   90.00000000
_cell_angle_gamma   89.05663672
_symmetry_Int_Tables_number   1
_chemical_formula_structural   MnCu3(PO4)4
_chemical_formula_sum   'Mn1 Cu3 P4 O16'
_cell_volume   282.72752489
_cell_formula_units_Z   1
loop_
 _symmetry_equiv_pos_site_id
 _symmetry_equiv_pos_as_xyz
  1  'x, y, z'
loop_
 _atom_site_type_symbol
 _atom_site_label
 _atom_site_symmetry_multiplicity
 _atom_site_fract_x
 _atom_site_fract_y
 _atom_site_fract_z
 _atom_site_occupancy
  Mn  Mn0  1  0.938555  0.285085  0.250000  1
  Cu  Cu1  1  0.070823  0.715021  0.750000  1
  Cu  Cu2  1  0.402575  0.210749  0.750000  1
  Cu  Cu3  1  0.574140  0.782570  0.250000  1
  P  P4  1  0.092324  0.598348  0.250000  1
  P  P5  1  0.417211  0.096327  0.250000  1
  P  P6  1  0.577378  0.899984  0.750000  1
  P  P7  1  0.916177  0.403350  0.750000  1
  O  O8  1  0.162366  0.442822  0.250000  1
  O  O9  1  0.238353  0.670386  0.047559  1
  O  O10  1  0.238353  0.670386  0.452441  1
  O  O11  1  0.232053  0.383359  0.750000  1
  O  O12  1  0.265183  0.880888  0.750000  1
  O  O13  1  0.258940  0.170063  0.050616  1
  O  O14  1  0.258940  0.170063  0.449384  1
  O  O15  1  0.352128  0.942164  0.250000  1
  O  O16  1  0.630976  0.056358  0.750000  1
  O  O17  1  0.733651  0.830291  0.547881  1
  O  O18  1  0.733651  0.830291  0.952119  1
  O  O19  1  0.725811  0.120546  0.250000  1
  O  O20  1  0.777377  0.614917  0.250000  1
  O  O21  1  0.775143  0.333331  0.544912  1
  O  O22  1  0.775143  0.333331  0.955088  1
  O  O23  1  0.852754  0.559375  0.750000  1
