# generated using pymatgen
data_RbLiVPO5
_symmetry_space_group_name_H-M   'P 1'
_cell_length_a   7.57328907
_cell_length_b   8.40474804
_cell_length_c   8.59819636
_cell_angle_alpha   90.00023439
_cell_angle_beta   90.00015763
_cell_angle_gamma   90.00263137
_symmetry_Int_Tables_number   1
_chemical_formula_structural   RbLiVPO5
_chemical_formula_sum   'Rb4 Li4 V4 P4 O20'
_cell_volume   547.28883878
_cell_formula_units_Z   4
loop_
 _symmetry_equiv_pos_site_id
 _symmetry_equiv_pos_as_xyz
  1  'x, y, z'
loop_
 _atom_site_type_symbol
 _atom_site_label
 _atom_site_symmetry_multiplicity
 _atom_site_fract_x
 _atom_site_fract_y
 _atom_site_fract_z
 _atom_site_occupancy
  Rb  Rb0  1  0.634742  0.205168  0.016579  1
  Rb  Rb1  1  0.365264  0.294854  0.516580  1
  Rb  Rb2  1  0.865264  0.705159  0.983418  1
  Rb  Rb3  1  0.134738  0.794848  0.483422  1
  Li  Li4  1  0.426907  0.995425  0.298131  1
  Li  Li5  1  0.573091  0.504581  0.798129  1
  Li  Li6  1  0.073071  0.495403  0.701866  1
  Li  Li7  1  0.926914  0.004604  0.201863  1
  V  V8  1  0.154867  0.225378  0.121643  1
  V  V9  1  0.845140  0.274603  0.621636  1
  V  V10  1  0.345148  0.725345  0.878337  1
  V  V11  1  0.654856  0.774656  0.378334  1
  P  P12  1  0.113266  0.064664  0.849548  1
  P  P13  1  0.886740  0.435331  0.349549  1
  P  P14  1  0.386698  0.564475  0.150511  1
  P  P15  1  0.613301  0.935528  0.650511  1
  O  O16  1  0.185579  0.062755  0.260170  1
  O  O17  1  0.974862  0.069109  0.984860  1
  O  O18  1  0.665545  0.107324  0.689343  1
  O  O19  1  0.048956  0.144406  0.697288  1
  O  O20  1  0.269020  0.168080  0.917497  1
  O  O21  1  0.730988  0.331909  0.417495  1
  O  O22  1  0.951061  0.355584  0.197300  1
  O  O23  1  0.334451  0.392679  0.189336  1
  O  O24  1  0.025139  0.430897  0.484868  1
  O  O25  1  0.814406  0.437220  0.760165  1
  O  O26  1  0.314412  0.562758  0.739841  1
  O  O27  1  0.525177  0.569107  0.015118  1
  O  O28  1  0.834396  0.607455  0.310653  1
  O  O29  1  0.451082  0.644446  0.302725  1
  O  O30  1  0.230969  0.668126  0.082487  1
  O  O31  1  0.769033  0.831880  0.582486  1
  O  O32  1  0.548917  0.855552  0.802717  1
  O  O33  1  0.165598  0.892536  0.810658  1
  O  O34  1  0.474826  0.930905  0.515112  1
  O  O35  1  0.685583  0.937243  0.239841  1
