# generated using pymatgen
data_Li5La4TiNb7O28
_symmetry_space_group_name_H-M   'P 1'
_cell_length_a   5.59493843
_cell_length_b   5.59165675
_cell_length_c   19.00613039
_cell_angle_alpha   89.95384167
_cell_angle_beta   89.88540393
_cell_angle_gamma   89.97460794
_symmetry_Int_Tables_number   1
_chemical_formula_structural   Li5La4TiNb7O28
_chemical_formula_sum   'Li5 La4 Ti1 Nb7 O28'
_cell_volume   594.60487910
_cell_formula_units_Z   1
loop_
 _symmetry_equiv_pos_site_id
 _symmetry_equiv_pos_as_xyz
  1  'x, y, z'
loop_
 _atom_site_type_symbol
 _atom_site_label
 _atom_site_symmetry_multiplicity
 _atom_site_fract_x
 _atom_site_fract_y
 _atom_site_fract_z
 _atom_site_occupancy
  Li  Li0  1  0.003165  0.994299  0.245291  1
  Li  Li1  1  0.001353  0.999006  0.756590  1
  Li  Li2  1  0.496925  0.997382  0.257966  1
  Li  Li3  1  0.489887  0.507016  0.270578  1
  Li  Li4  1  0.498537  0.501813  0.732956  1
  La  La5  1  0.236499  0.764678  0.998860  1
  La  La6  1  0.262195  0.263717  0.495105  1
  La  La7  1  0.735287  0.740518  0.495164  1
  La  La8  1  0.763333  0.235263  0.998822  1
  Ti  Ti9  1  0.247918  0.754853  0.382951  1
  Nb  Nb10  1  0.245464  0.753986  0.617218  1
  Nb  Nb11  1  0.252739  0.253313  0.118406  1
  Nb  Nb12  1  0.254129  0.254120  0.879595  1
  Nb  Nb13  1  0.746670  0.746495  0.118383  1
  Nb  Nb14  1  0.746237  0.745816  0.879576  1
  Nb  Nb15  1  0.755476  0.250224  0.382580  1
  Nb  Nb16  1  0.753704  0.246223  0.618796  1
  O  O17  1  0.000237  0.999190  0.121443  1
  O  O18  1  0.999892  0.499873  0.096293  1
  O  O19  1  0.001925  0.999477  0.414154  1
  O  O20  1  0.002803  0.501617  0.402667  1
  O  O21  1  0.999683  0.000178  0.583200  1
  O  O22  1  0.999357  0.499205  0.594090  1
  O  O23  1  0.000252  0.999968  0.880742  1
  O  O24  1  0.000110  0.499952  0.906339  1
  O  O25  1  0.194233  0.193162  0.001669  1
  O  O26  1  0.242735  0.793301  0.290331  1
  O  O27  1  0.219921  0.779574  0.712234  1
  O  O28  1  0.296367  0.262705  0.213405  1
  O  O29  1  0.282170  0.282108  0.786269  1
  O  O30  1  0.307155  0.694108  0.499532  1
  O  O31  1  0.499792  0.499952  0.083436  1
  O  O32  1  0.499842  0.999942  0.094499  1
  O  O33  1  0.500119  0.998775  0.404297  1
  O  O34  1  0.499901  0.501205  0.379555  1
  O  O35  1  0.500147  0.999949  0.906012  1
  O  O36  1  0.500086  0.499949  0.916174  1
  O  O37  1  0.500601  0.000507  0.594287  1
  O  O38  1  0.500777  0.499021  0.622201  1
  O  O39  1  0.696493  0.302875  0.497993  1
  O  O40  1  0.701935  0.735966  0.213379  1
  O  O41  1  0.718434  0.717930  0.786289  1
  O  O42  1  0.759159  0.204911  0.285544  1
  O  O43  1  0.780671  0.219074  0.713441  1
  O  O44  1  0.805685  0.806805  0.001691  1
