# generated using pymatgen
data_Li2Mn4OF8
_symmetry_space_group_name_H-M   'P 1'
_cell_length_a   5.44808930
_cell_length_b   5.36930069
_cell_length_c   14.68950133
_cell_angle_alpha   90.05615436
_cell_angle_beta   90.68591982
_cell_angle_gamma   119.50164804
_symmetry_Int_Tables_number   1
_chemical_formula_structural   Li2Mn4OF8
_chemical_formula_sum   'Li4 Mn8 O2 F16'
_cell_volume   373.95042352
_cell_formula_units_Z   2
loop_
 _symmetry_equiv_pos_site_id
 _symmetry_equiv_pos_as_xyz
  1  'x, y, z'
loop_
 _atom_site_type_symbol
 _atom_site_label
 _atom_site_symmetry_multiplicity
 _atom_site_fract_x
 _atom_site_fract_y
 _atom_site_fract_z
 _atom_site_occupancy
  Li  Li0  1  0.990749  0.991391  0.155798  1
  Li  Li1  1  0.019764  0.033630  0.366014  1
  Li  Li2  1  0.000378  0.003284  0.654748  1
  Li  Li3  1  0.027710  0.991799  0.862683  1
  Mn  Mn4  1  0.319793  0.675462  0.019942  1
  Mn  Mn5  1  0.337990  0.655337  0.316742  1
  Mn  Mn6  1  0.345947  0.686720  0.816577  1
  Mn  Mn7  1  0.324108  0.649270  0.519813  1
  Mn  Mn8  1  0.657396  0.328278  0.185083  1
  Mn  Mn9  1  0.667958  0.334539  0.686130  1
  Mn  Mn10  1  0.652513  0.307645  0.967190  1
  Mn  Mn11  1  0.651771  0.346791  0.468630  1
  O  O12  1  0.330909  0.945418  0.917990  1
  O  O13  1  0.329931  0.385288  0.418012  1
  F  F14  1  0.001929  0.698870  0.747968  1
  F  F15  1  0.033247  0.697304  0.417408  1
  F  F16  1  0.033098  0.335797  0.916708  1
  F  F17  1  0.995550  0.303084  0.246073  1
  F  F18  1  0.310540  0.319960  0.745424  1
  F  F19  1  0.655764  0.988404  0.416146  1
  F  F20  1  0.360172  0.339031  0.084076  1
  F  F21  1  0.304215  0.990431  0.247292  1
  F  F22  1  0.656220  0.667178  0.913012  1
  F  F23  1  0.362688  0.022516  0.585560  1
  F  F24  1  0.679107  0.645142  0.587304  1
  F  F25  1  0.697399  0.698959  0.245991  1
  F  F26  1  0.948214  0.630749  0.083689  1
  F  F27  1  0.677365  0.031112  0.086692  1
  F  F28  1  0.703755  0.000351  0.744635  1
  F  F29  1  0.954892  0.322466  0.583992  1
