# generated using pymatgen
data_Li8Ti7Nb6O30
_symmetry_space_group_name_H-M   'P 1'
_cell_length_a   5.19576128
_cell_length_b   5.19586128
_cell_length_c   24.34257307
_cell_angle_alpha   90.00264581
_cell_angle_beta   89.99788119
_cell_angle_gamma   119.99964895
_symmetry_Int_Tables_number   1
_chemical_formula_structural   Li8Ti7Nb6O30
_chemical_formula_sum   'Li8 Ti7 Nb6 O30'
_cell_volume   569.12201650
_cell_formula_units_Z   1
loop_
 _symmetry_equiv_pos_site_id
 _symmetry_equiv_pos_as_xyz
  1  'x, y, z'
loop_
 _atom_site_type_symbol
 _atom_site_label
 _atom_site_symmetry_multiplicity
 _atom_site_fract_x
 _atom_site_fract_y
 _atom_site_fract_z
 _atom_site_occupancy
  Li  Li0  1  0.999987  0.999989  0.077510  1
  Li  Li1  1  0.999973  0.999976  0.371266  1
  Li  Li2  1  0.000011  0.000039  0.630883  1
  Li  Li3  1  0.999975  0.999989  0.921699  1
  Li  Li4  1  0.333350  0.666652  0.794407  1
  Li  Li5  1  0.333367  0.666677  0.527832  1
  Li  Li6  1  0.666663  0.333337  0.207525  1
  Li  Li7  1  0.666668  0.333351  0.472458  1
  Ti  Ti8  1  0.333311  0.666649  0.290571  1
  Ti  Ti9  1  0.333321  0.666671  0.894252  1
  Ti  Ti10  1  0.333309  0.666650  0.011004  1
  Ti  Ti11  1  0.333358  0.666717  0.690395  1
  Ti  Ti12  1  0.666632  0.333321  0.983088  1
  Ti  Ti13  1  0.666686  0.333355  0.712078  1
  Ti  Ti14  1  0.666643  0.333319  0.310487  1
  Nb  Nb15  1  0.333348  0.666651  0.404622  1
  Nb  Nb16  1  0.999990  0.999985  0.203770  1
  Nb  Nb17  1  0.000016  0.000008  0.500173  1
  Nb  Nb18  1  -0.000003  0.000012  0.801331  1
  Nb  Nb19  1  0.666669  0.333327  0.105065  1
  Nb  Nb20  1  0.666659  0.333350  0.595664  1
  O  O21  1  0.921492  0.670439  0.151881  1
  O  O22  1  0.008507  0.634228  0.347802  1
  O  O23  1  0.010331  0.667170  0.746016  1
  O  O24  1  0.293117  0.959333  0.450847  1
  O  O25  1  0.982179  0.362712  0.045516  1
  O  O26  1  0.380526  0.017808  0.045515  1
  O  O27  1  0.040654  0.333787  0.450852  1
  O  O28  1  0.332857  0.343128  0.746013  1
  O  O29  1  0.625699  0.991468  0.347798  1
  O  O30  1  0.329559  0.251038  0.151884  1
  O  O31  1  0.656888  0.989700  0.746016  1
  O  O32  1  0.365748  0.374278  0.347796  1
  O  O33  1  0.334847  0.293289  0.549295  1
  O  O34  1  0.748957  0.078507  0.151880  1
  O  O35  1  0.364451  0.383366  0.951314  1
  O  O36  1  0.637244  0.619438  0.045516  1
  O  O37  1  0.249750  0.915583  0.848315  1
  O  O38  1  0.666203  0.706884  0.450851  1
  O  O39  1  0.630975  0.621946  0.652662  1
  O  O40  1  0.343521  0.012575  0.254324  1
  O  O41  1  0.665821  0.750244  0.848317  1
  O  O42  1  0.378076  0.009042  0.652653  1
  O  O43  1  0.669029  0.656452  0.254326  1
  O  O44  1  0.958497  0.665222  0.549298  1
  O  O45  1  0.616610  0.981081  0.951316  1
  O  O46  1  0.018876  0.635523  0.951319  1
  O  O47  1  0.706781  0.041568  0.549304  1
  O  O48  1  0.987394  0.330936  0.254325  1
  O  O49  1  0.990975  0.369059  0.652657  1
  O  O50  1  0.084411  0.334172  0.848314  1
