# generated using pymatgen
data_LiV2OF7
_symmetry_space_group_name_H-M   'P 1'
_cell_length_a   5.68521687
_cell_length_b   5.43014058
_cell_length_c   10.89164698
_cell_angle_alpha   90.00000000
_cell_angle_beta   76.00998715
_cell_angle_gamma   90.00000000
_symmetry_Int_Tables_number   1
_chemical_formula_structural   LiV2OF7
_chemical_formula_sum   'Li2 V4 O2 F14'
_cell_volume   326.26812846
_cell_formula_units_Z   2
loop_
 _symmetry_equiv_pos_site_id
 _symmetry_equiv_pos_as_xyz
  1  'x, y, z'
loop_
 _atom_site_type_symbol
 _atom_site_label
 _atom_site_symmetry_multiplicity
 _atom_site_fract_x
 _atom_site_fract_y
 _atom_site_fract_z
 _atom_site_occupancy
  Li  Li0  1  0.972092  0.925345  0.503838  1
  Li  Li1  1  0.472092  0.574655  0.003838  1
  V  V2  1  0.071943  0.743350  0.813583  1
  V  V3  1  0.571943  0.756650  0.313583  1
  V  V4  1  0.445293  0.230349  0.682751  1
  V  V5  1  0.945293  0.269651  0.182751  1
  O  O6  1  0.331528  0.930937  0.740006  1
  O  O7  1  0.831528  0.569063  0.240006  1
  F  F8  1  0.055370  0.125105  0.307328  1
  F  F9  1  0.252562  0.310619  0.086878  1
  F  F10  1  0.269299  0.730395  0.413666  1
  F  F11  1  0.129751  0.400433  0.778151  1
  F  F12  1  0.455897  0.726576  0.167036  1
  F  F13  1  0.318363  0.270640  0.548972  1
  F  F14  1  0.197901  0.723120  0.957790  1
  F  F15  1  0.629751  0.099567  0.278151  1
  F  F16  1  0.818363  0.229360  0.048972  1
  F  F17  1  0.697901  0.776880  0.457790  1
  F  F18  1  0.555370  0.374895  0.807328  1
  F  F19  1  0.752562  0.189381  0.586878  1
  F  F20  1  0.769299  0.769605  0.913666  1
  F  F21  1  0.955897  0.773424  0.667036  1
