# generated using pymatgen
data_Li3Mn(PO4)2
_symmetry_space_group_name_H-M   'P 1'
_cell_length_a   8.08794065
_cell_length_b   8.47310582
_cell_length_c   10.41390327
_cell_angle_alpha   89.95993374
_cell_angle_beta   90.01954073
_cell_angle_gamma   72.55456508
_symmetry_Int_Tables_number   1
_chemical_formula_structural   Li3Mn(PO4)2
_chemical_formula_sum   'Li12 Mn4 P8 O32'
_cell_volume   680.83776684
_cell_formula_units_Z   4
loop_
 _symmetry_equiv_pos_site_id
 _symmetry_equiv_pos_as_xyz
  1  'x, y, z'
loop_
 _atom_site_type_symbol
 _atom_site_label
 _atom_site_symmetry_multiplicity
 _atom_site_fract_x
 _atom_site_fract_y
 _atom_site_fract_z
 _atom_site_occupancy
  Li  Li0  1  0.363138  0.128360  0.856750  1
  Li  Li1  1  0.530388  0.229467  0.560288  1
  Li  Li2  1  0.176363  0.353063  0.165110  1
  Li  Li3  1  0.485024  0.267388  0.071388  1
  Li  Li4  1  0.614274  0.394973  0.828883  1
  Li  Li5  1  0.614748  0.393247  0.333782  1
  Li  Li6  1  0.357422  0.642145  0.645545  1
  Li  Li7  1  0.185684  0.846873  0.331865  1
  Li  Li8  1  0.813032  0.654352  0.846466  1
  Li  Li9  1  0.488104  0.775766  0.417264  1
  Li  Li10  1  0.647249  0.833740  0.146814  1
  Li  Li11  1  0.607663  0.901220  0.667574  1
  Mn  Mn12  1  0.108415  0.353351  0.664135  1
  Mn  Mn13  1  0.885114  0.133559  0.158529  1
  Mn  Mn14  1  0.892620  0.633427  0.342395  1
  Mn  Mn15  1  0.118621  0.858380  0.845237  1
  P  P16  1  0.212708  0.044651  0.580794  1
  P  P17  1  0.728890  0.021942  0.911372  1
  P  P18  1  0.283569  0.481361  0.417063  1
  P  P19  1  0.206251  0.542848  0.915117  1
  P  P20  1  0.789205  0.447443  0.082744  1
  P  P21  1  0.711074  0.523893  0.588929  1
  P  P22  1  0.286021  0.981943  0.098031  1
  P  P23  1  0.787976  0.949437  0.413716  1
  O  O24  1  0.323526  0.142589  0.658941  1
  O  O25  1  0.042316  0.192663  0.562468  1
  O  O26  1  0.334788  0.139867  0.125483  1
  O  O27  1  0.903692  0.033179  0.853027  1
  O  O28  1  0.799187  0.093465  0.329603  1
  O  O29  1  0.586790  0.191054  0.892636  1
  O  O30  1  0.425297  0.317687  0.392807  1
  O  O31  1  0.188300  0.396030  0.833027  1
  O  O32  1  0.120078  0.478836  0.331400  1
  O  O33  1  0.678257  0.343509  0.149820  1
  O  O34  1  0.284592  0.476449  0.042870  1
  O  O35  1  0.228033  0.497520  0.560675  1
  O  O36  1  0.970245  0.309358  0.084811  1
  O  O37  1  0.621094  0.400791  0.640536  1
  O  O38  1  0.310720  0.641446  0.836449  1
  O  O39  1  0.027507  0.684036  0.923825  1
  O  O40  1  0.347886  0.628015  0.379521  1
  O  O41  1  0.762120  0.493720  0.444410  1
  O  O42  1  0.726262  0.505190  0.949792  1
  O  O43  1  0.876457  0.516560  0.672942  1
  O  O44  1  0.799415  0.591391  0.169696  1
  O  O45  1  0.583210  0.700626  0.602774  1
  O  O46  1  0.416152  0.825847  0.149360  1
  O  O47  1  0.189895  0.905918  0.669005  1
  O  O48  1  0.109939  0.981683  0.170742  1
  O  O49  1  0.689513  0.836768  0.341629  1
  O  O50  1  0.293594  0.971703  0.455594  1
  O  O51  1  0.253382  0.979510  0.950003  1
  O  O52  1  0.970998  0.812054  0.420249  1
  O  O53  1  0.669006  0.886080  0.845868  1
  O  O54  1  0.705927  0.009510  0.541831  1
  O  O55  1  0.754514  0.991076  0.059400  1
