# generated using pymatgen
data_Co4NiO8
_symmetry_space_group_name_H-M   'P 1'
_cell_length_a   5.63883688
_cell_length_b   5.62441324
_cell_length_c   5.76562766
_cell_angle_alpha   89.96547242
_cell_angle_beta   62.11106192
_cell_angle_gamma   59.78745623
_symmetry_Int_Tables_number   1
_chemical_formula_structural   Co4NiO8
_chemical_formula_sum   'Co4 Ni1 O8'
_cell_volume   132.90439980
_cell_formula_units_Z   1
loop_
 _symmetry_equiv_pos_site_id
 _symmetry_equiv_pos_as_xyz
  1  'x, y, z'
loop_
 _atom_site_type_symbol
 _atom_site_label
 _atom_site_symmetry_multiplicity
 _atom_site_fract_x
 _atom_site_fract_y
 _atom_site_fract_z
 _atom_site_occupancy
  Co  Co0  1  0.000000  0.500000  0.500000  1
  Co  Co1  1  0.000000  0.000000  0.000000  1
  Co  Co2  1  0.500000  0.000000  0.000000  1
  Co  Co3  1  0.000000  0.500000  0.000000  1
  Ni  Ni4  1  0.500000  0.500000  0.000000  1
  O  O5  1  0.463281  0.266930  0.804432  1
  O  O6  1  0.956098  0.278001  0.794840  1
  O  O7  1  0.474996  0.760258  0.794984  1
  O  O8  1  0.957660  0.766753  0.793837  1
  O  O9  1  0.042340  0.233247  0.206163  1
  O  O10  1  0.525004  0.239742  0.205016  1
  O  O11  1  0.043902  0.721999  0.205160  1
  O  O12  1  0.536719  0.733070  0.195568  1
