# generated using pymatgen
data_Li2Co3BiO8
_symmetry_space_group_name_H-M   'P 1'
_cell_length_a   5.79571939
_cell_length_b   5.79571941
_cell_length_c   6.08145487
_cell_angle_alpha   61.54243749
_cell_angle_beta   118.45756259
_cell_angle_gamma   120.00000074
_symmetry_Int_Tables_number   1
_chemical_formula_structural   Li2Co3BiO8
_chemical_formula_sum   'Li2 Co3 Bi1 O8'
_cell_volume   147.72305622
_cell_formula_units_Z   1
loop_
 _symmetry_equiv_pos_site_id
 _symmetry_equiv_pos_as_xyz
  1  'x, y, z'
loop_
 _atom_site_type_symbol
 _atom_site_label
 _atom_site_symmetry_multiplicity
 _atom_site_fract_x
 _atom_site_fract_y
 _atom_site_fract_z
 _atom_site_occupancy
  Li  Li0  1  0.880786  0.119214  0.642358  1
  Li  Li1  1  0.119214  0.880786  0.357642  1
  Co  Co2  1  0.500000  0.500000  0.000000  1
  Co  Co3  1  0.500000  0.000000  0.000000  1
  Co  Co4  1  0.000000  0.500000  0.000000  1
  Bi  Bi5  1  0.500000  0.500000  0.500000  1
  O  O6  1  0.753803  0.714288  0.793318  1
  O  O7  1  0.753803  0.246197  0.793318  1
  O  O8  1  0.266591  0.733409  0.799771  1
  O  O9  1  0.285712  0.246197  0.793318  1
  O  O10  1  0.714288  0.753803  0.206682  1
  O  O11  1  0.733409  0.266591  0.200229  1
  O  O12  1  0.246197  0.753803  0.206682  1
  O  O13  1  0.246197  0.285712  0.206682  1
