# generated using pymatgen
data_Fe3Ni(PO4)4
_symmetry_space_group_name_H-M   'P 1'
_cell_length_a   4.87037485
_cell_length_b   9.94453734
_cell_length_c   5.89883979
_cell_angle_alpha   90.00000000
_cell_angle_beta   90.00000000
_cell_angle_gamma   90.18864760
_symmetry_Int_Tables_number   1
_chemical_formula_structural   Fe3Ni(PO4)4
_chemical_formula_sum   'Fe3 Ni1 P4 O16'
_cell_volume   285.70064301
_cell_formula_units_Z   1
loop_
 _symmetry_equiv_pos_site_id
 _symmetry_equiv_pos_as_xyz
  1  'x, y, z'
loop_
 _atom_site_type_symbol
 _atom_site_label
 _atom_site_symmetry_multiplicity
 _atom_site_fract_x
 _atom_site_fract_y
 _atom_site_fract_z
 _atom_site_occupancy
  Fe  Fe0  1  0.468043  0.226689  0.750000  1
  Fe  Fe1  1  0.533810  0.773371  0.250000  1
  Fe  Fe2  1  0.967313  0.274577  0.250000  1
  Ni  Ni3  1  0.048466  0.722658  0.750000  1
  P  P4  1  0.082951  0.596812  0.250000  1
  P  P5  1  0.416214  0.095661  0.250000  1
  P  P6  1  0.582444  0.898041  0.750000  1
  P  P7  1  0.918388  0.407019  0.750000  1
  O  O8  1  0.152681  0.446976  0.250000  1
  O  O9  1  0.233664  0.671491  0.049148  1
  O  O10  1  0.233664  0.671491  0.450852  1
  O  O11  1  0.227783  0.382997  0.750000  1
  O  O12  1  0.267636  0.885024  0.750000  1
  O  O13  1  0.271158  0.171414  0.047073  1
  O  O14  1  0.271158  0.171414  0.452927  1
  O  O15  1  0.346397  0.946712  0.250000  1
  O  O16  1  0.643944  0.049972  0.750000  1
  O  O17  1  0.723271  0.826816  0.544877  1
  O  O18  1  0.723271  0.826816  0.955123  1
  O  O19  1  0.726292  0.119173  0.250000  1
  O  O20  1  0.774502  0.617774  0.250000  1
  O  O21  1  0.771612  0.330808  0.547620  1
  O  O22  1  0.771612  0.330808  0.952380  1
  O  O23  1  0.843723  0.555489  0.750000  1
