# generated using pymatgen
data_LiCoCuO4
_symmetry_space_group_name_H-M   'P 1'
_cell_length_a   5.81568709
_cell_length_b   5.75396096
_cell_length_c   5.80989888
_cell_angle_alpha   59.95684485
_cell_angle_beta   59.85716692
_cell_angle_gamma   91.25650950
_symmetry_Int_Tables_number   1
_chemical_formula_structural   LiCoCuO4
_chemical_formula_sum   'Li2 Co2 Cu2 O8'
_cell_volume   135.49117837
_cell_formula_units_Z   2
loop_
 _symmetry_equiv_pos_site_id
 _symmetry_equiv_pos_as_xyz
  1  'x, y, z'
loop_
 _atom_site_type_symbol
 _atom_site_label
 _atom_site_symmetry_multiplicity
 _atom_site_fract_x
 _atom_site_fract_y
 _atom_site_fract_z
 _atom_site_occupancy
  Li  Li0  1  0.500000  0.000000  0.500000  1
  Li  Li1  1  0.500000  0.500000  0.000000  1
  Co  Co2  1  0.000000  0.500000  0.500000  1
  Co  Co3  1  0.500000  0.000000  0.000000  1
  Cu  Cu4  1  0.000000  0.000000  0.500000  1
  Cu  Cu5  1  0.000000  0.000000  0.000000  1
  O  O6  1  0.747810  0.793133  0.965721  1
  O  O7  1  0.260341  0.756919  0.453434  1
  O  O8  1  0.754264  0.240213  0.977605  1
  O  O9  1  0.789387  0.752097  0.491270  1
  O  O10  1  0.210613  0.247903  0.508730  1
  O  O11  1  0.245736  0.759787  0.022395  1
  O  O12  1  0.739659  0.243081  0.546566  1
  O  O13  1  0.252190  0.206867  0.034279  1
