# generated using pymatgen
data_Na5LiMn2P2(CO7)2
_symmetry_space_group_name_H-M   'P 1'
_cell_length_a   8.96045070
_cell_length_b   6.81808806
_cell_length_c   10.33569569
_cell_angle_alpha   89.85062511
_cell_angle_beta   89.79856346
_cell_angle_gamma   90.30858388
_symmetry_Int_Tables_number   1
_chemical_formula_structural   Na5LiMn2P2(CO7)2
_chemical_formula_sum   'Na10 Li2 Mn4 P4 C4 O28'
_cell_volume   631.42488606
_cell_formula_units_Z   2
loop_
 _symmetry_equiv_pos_site_id
 _symmetry_equiv_pos_as_xyz
  1  'x, y, z'
loop_
 _atom_site_type_symbol
 _atom_site_label
 _atom_site_symmetry_multiplicity
 _atom_site_fract_x
 _atom_site_fract_y
 _atom_site_fract_z
 _atom_site_occupancy
  Na  Na0  1  0.083726  0.251959  0.879970  1
  Na  Na1  1  0.082959  0.252390  0.379843  1
  Na  Na2  1  0.258653  0.000422  0.623560  1
  Na  Na3  1  0.258247  0.499755  0.623489  1
  Na  Na4  1  0.258553  0.002283  0.124033  1
  Na  Na5  1  0.741453  0.501670  0.874807  1
  Na  Na6  1  0.741292  0.998474  0.875185  1
  Na  Na7  1  0.741663  0.502005  0.377357  1
  Na  Na8  1  0.741286  0.998072  0.377564  1
  Na  Na9  1  0.917057  0.747632  0.120533  1
  Li  Li10  1  0.269897  0.488598  0.119723  1
  Li  Li11  1  0.915421  0.749921  0.621783  1
  Mn  Mn12  1  0.360564  0.747662  0.890116  1
  Mn  Mn13  1  0.360218  0.749081  0.387941  1
  Mn  Mn14  1  0.639528  0.250208  0.610763  1
  Mn  Mn15  1  0.638241  0.249531  0.111731  1
  P  P16  1  0.410914  0.249725  0.852905  1
  P  P17  1  0.408803  0.253242  0.350318  1
  P  P18  1  0.593882  0.750046  0.648822  1
  P  P19  1  0.586124  0.745716  0.149448  1
  C  C20  1  0.058990  0.749215  0.863982  1
  C  C21  1  0.055519  0.748858  0.370852  1
  C  C22  1  0.940133  0.250089  0.632077  1
  C  C23  1  0.943835  0.256031  0.131599  1
  O  O24  1  0.084111  0.249154  0.642688  1
  O  O25  1  0.088633  0.267812  0.141304  1
  O  O26  1  0.118167  0.748566  0.978908  1
  O  O27  1  0.108535  0.749549  0.488099  1
  O  O28  1  0.145631  0.748221  0.762588  1
  O  O29  1  0.146320  0.746512  0.271459  1
  O  O30  1  0.318982  0.064868  0.892994  1
  O  O31  1  0.318670  0.430972  0.897371  1
  O  O32  1  0.317823  0.067056  0.389569  1
  O  O33  1  0.317808  0.433680  0.396022  1
  O  O34  1  0.428413  0.253009  0.702153  1
  O  O35  1  0.436694  0.750289  0.586053  1
  O  O36  1  0.422958  0.262384  0.198898  1
  O  O37  1  0.425222  0.735684  0.092286  1
  O  O38  1  0.569305  0.249787  0.912583  1
  O  O39  1  0.571631  0.749343  0.799007  1
  O  O40  1  0.567968  0.250234  0.409260  1
  O  O41  1  0.571623  0.748621  0.300052  1
  O  O42  1  0.688979  0.568899  0.609045  1
  O  O43  1  0.689253  0.932402  0.608898  1
  O  O44  1  0.681278  0.566100  0.107942  1
  O  O45  1  0.673986  0.931927  0.105368  1
  O  O46  1  0.855671  0.250451  0.735198  1
  O  O47  1  0.859950  0.249541  0.234946  1
  O  O48  1  0.877514  0.250785  0.518596  1
  O  O49  1  0.880238  0.249913  0.018735  1
  O  O50  1  0.915123  0.750822  0.848774  1
  O  O51  1  0.912559  0.750833  0.352803  1
