# generated using pymatgen
data_Li3FeNi3O8
_symmetry_space_group_name_H-M   'P 1'
_cell_length_a   5.77578290
_cell_length_b   5.78132222
_cell_length_c   9.42853431
_cell_angle_alpha   89.73996144
_cell_angle_beta   89.92309378
_cell_angle_gamma   60.05036217
_symmetry_Int_Tables_number   1
_chemical_formula_structural   Li3FeNi3O8
_chemical_formula_sum   'Li6 Fe2 Ni6 O16'
_cell_volume   272.78991302
_cell_formula_units_Z   2
loop_
 _symmetry_equiv_pos_site_id
 _symmetry_equiv_pos_as_xyz
  1  'x, y, z'
loop_
 _atom_site_type_symbol
 _atom_site_label
 _atom_site_symmetry_multiplicity
 _atom_site_fract_x
 _atom_site_fract_y
 _atom_site_fract_z
 _atom_site_occupancy
  Li  Li0  1  0.168797  0.168385  0.448323  1
  Li  Li1  1  0.167883  0.664880  0.448892  1
  Li  Li2  1  0.665199  0.167043  0.448457  1
  Li  Li3  1  0.336631  0.831834  0.948071  1
  Li  Li4  1  0.833674  0.333136  0.948238  1
  Li  Li5  1  0.831980  0.832435  0.948282  1
  Fe  Fe6  1  0.333838  0.332035  0.986119  1
  Fe  Fe7  1  0.666463  0.668443  0.485122  1
  Ni  Ni8  1  0.168594  0.169812  0.713314  1
  Ni  Ni9  1  0.169109  0.661923  0.713979  1
  Ni  Ni10  1  0.661904  0.169066  0.713208  1
  Ni  Ni11  1  0.337008  0.830910  0.214249  1
  Ni  Ni12  1  0.830026  0.338123  0.214111  1
  Ni  Ni13  1  0.830025  0.831324  0.213887  1
  O  O14  1  0.996395  0.995618  0.312399  1
  O  O15  1  0.997599  0.003042  0.810808  1
  O  O16  1  0.166534  0.163794  0.088755  1
  O  O17  1  0.032755  0.483404  0.853069  1
  O  O18  1  0.166628  0.668150  0.088332  1
  O  O19  1  0.335332  0.330739  0.606334  1
  O  O20  1  0.481816  0.034183  0.850778  1
  O  O21  1  0.484208  0.481522  0.852923  1
  O  O22  1  0.330733  0.835382  0.587729  1
  O  O23  1  0.671240  0.161446  0.088453  1
  O  O24  1  0.515646  0.517520  0.352868  1
  O  O25  1  0.668170  0.672360  0.107491  1
  O  O26  1  0.515776  0.967991  0.351748  1
  O  O27  1  0.836724  0.329803  0.588031  1
  O  O28  1  0.965048  0.520992  0.351259  1
  O  O29  1  0.833872  0.835095  0.589104  1
