# generated using pymatgen
data_Li2Cr3(CoO6)2
_symmetry_space_group_name_H-M   'P 1'
_cell_length_a   12.64332718
_cell_length_b   9.14969934
_cell_length_c   9.17571227
_cell_angle_alpha   90.00000000
_cell_angle_beta   90.00000000
_cell_angle_gamma   90.00000000
_symmetry_Int_Tables_number   1
_chemical_formula_structural   Li2Cr3(CoO6)2
_chemical_formula_sum   'Li8 Cr12 Co8 O48'
_cell_volume   1061.47064088
_cell_formula_units_Z   4
loop_
 _symmetry_equiv_pos_site_id
 _symmetry_equiv_pos_as_xyz
  1  'x, y, z'
loop_
 _atom_site_type_symbol
 _atom_site_label
 _atom_site_symmetry_multiplicity
 _atom_site_fract_x
 _atom_site_fract_y
 _atom_site_fract_z
 _atom_site_occupancy
  Li  Li0  1  0.186894  0.220443  0.271747  1
  Li  Li1  1  0.186894  0.779557  0.771747  1
  Li  Li2  1  0.313105  0.279557  0.771747  1
  Li  Li3  1  0.313105  0.720443  0.271747  1
  Li  Li4  1  0.686895  0.279557  0.728253  1
  Li  Li5  1  0.686895  0.720443  0.228253  1
  Li  Li6  1  0.813105  0.220443  0.228253  1
  Li  Li7  1  0.813105  0.779557  0.728253  1
  Cr  Cr8  1  0.000000  0.462685  0.250000  1
  Cr  Cr9  1  0.000000  0.537315  0.750000  1
  Cr  Cr10  1  0.143370  0.100539  0.605778  1
  Cr  Cr11  1  0.143370  0.899461  0.105778  1
  Cr  Cr12  1  0.356630  0.399461  0.105778  1
  Cr  Cr13  1  0.356630  0.600539  0.605778  1
  Cr  Cr14  1  0.500000  0.037315  0.750000  1
  Cr  Cr15  1  0.500000  0.962685  0.250000  1
  Cr  Cr16  1  0.643370  0.399461  0.394222  1
  Cr  Cr17  1  0.643370  0.600539  0.894222  1
  Cr  Cr18  1  0.856630  0.100539  0.894222  1
  Cr  Cr19  1  0.856630  0.899461  0.394222  1
  Co  Co20  1  0.119126  0.253164  0.966975  1
  Co  Co21  1  0.119126  0.746836  0.466975  1
  Co  Co22  1  0.380874  0.246836  0.466975  1
  Co  Co23  1  0.380874  0.753164  0.966975  1
  Co  Co24  1  0.619126  0.246836  0.033025  1
  Co  Co25  1  0.619126  0.753164  0.533025  1
  Co  Co26  1  0.880874  0.253164  0.533025  1
  Co  Co27  1  0.880874  0.746836  0.033025  1
  O  O28  1  0.020862  0.143639  0.567977  1
  O  O29  1  0.020862  0.856361  0.067977  1
  O  O30  1  0.064386  0.565143  0.368381  1
  O  O31  1  0.064386  0.434857  0.868381  1
  O  O32  1  0.088583  0.354310  0.165042  1
  O  O33  1  0.088583  0.645690  0.665042  1
  O  O34  1  0.159345  0.082446  0.107174  1
  O  O35  1  0.159345  0.917554  0.607174  1
  O  O36  1  0.176085  0.167166  0.769465  1
  O  O37  1  0.176085  0.832834  0.269465  1
  O  O38  1  0.222674  0.173091  0.476712  1
  O  O39  1  0.222674  0.826909  0.976712  1
  O  O40  1  0.277326  0.326909  0.976712  1
  O  O41  1  0.277326  0.673091  0.476712  1
  O  O42  1  0.323915  0.667166  0.769465  1
  O  O43  1  0.323915  0.332834  0.269465  1
  O  O44  1  0.340655  0.417554  0.607174  1
  O  O45  1  0.340655  0.582446  0.107174  1
  O  O46  1  0.411417  0.145690  0.665042  1
  O  O47  1  0.411417  0.854310  0.165042  1
  O  O48  1  0.435614  0.065143  0.368381  1
  O  O49  1  0.435614  0.934857  0.868381  1
  O  O50  1  0.479137  0.643639  0.567977  1
  O  O51  1  0.479137  0.356361  0.067977  1
  O  O52  1  0.520863  0.356361  0.432023  1
  O  O53  1  0.520863  0.643639  0.932023  1
  O  O54  1  0.564386  0.065143  0.131619  1
  O  O55  1  0.564386  0.934857  0.631619  1
  O  O56  1  0.588583  0.145690  0.834958  1
  O  O57  1  0.588583  0.854310  0.334958  1
  O  O58  1  0.659345  0.417554  0.892826  1
  O  O59  1  0.659345  0.582446  0.392826  1
  O  O60  1  0.676085  0.332834  0.230535  1
  O  O61  1  0.676085  0.667166  0.730535  1
  O  O62  1  0.722674  0.326909  0.523288  1
  O  O63  1  0.722674  0.673091  0.023288  1
  O  O64  1  0.777326  0.173091  0.023288  1
  O  O65  1  0.777326  0.826909  0.523288  1
  O  O66  1  0.823915  0.167166  0.730535  1
  O  O67  1  0.823915  0.832834  0.230535  1
  O  O68  1  0.840655  0.082446  0.392826  1
  O  O69  1  0.840655  0.917554  0.892826  1
  O  O70  1  0.911417  0.354310  0.334958  1
  O  O71  1  0.911417  0.645690  0.834958  1
  O  O72  1  0.935614  0.434857  0.631619  1
  O  O73  1  0.935614  0.565143  0.131619  1
  O  O74  1  0.979137  0.143639  0.932023  1
  O  O75  1  0.979137  0.856361  0.432023  1
