# generated using pymatgen
data_Li2CoSiO4
_symmetry_space_group_name_H-M   'P 1'
_cell_length_a   5.01983239
_cell_length_b   6.18596385
_cell_length_c   10.91608878
_cell_angle_alpha   89.99992242
_cell_angle_beta   90.00000596
_cell_angle_gamma   89.99397221
_symmetry_Int_Tables_number   1
_chemical_formula_structural   Li2CoSiO4
_chemical_formula_sum   'Li8 Co4 Si4 O16'
_cell_volume   338.97186331
_cell_formula_units_Z   4
loop_
 _symmetry_equiv_pos_site_id
 _symmetry_equiv_pos_as_xyz
  1  'x, y, z'
loop_
 _atom_site_type_symbol
 _atom_site_label
 _atom_site_symmetry_multiplicity
 _atom_site_fract_x
 _atom_site_fract_y
 _atom_site_fract_z
 _atom_site_occupancy
  Li  Li0  1  0.817565  0.999684  0.412010  1
  Li  Li1  1  0.182634  0.997720  0.587102  1
  Li  Li2  1  0.682288  0.004036  0.912463  1
  Li  Li3  1  0.817714  0.495963  0.412464  1
  Li  Li4  1  0.682437  0.500315  0.912010  1
  Li  Li5  1  0.317368  0.502278  0.087103  1
  Li  Li6  1  0.182980  0.501423  0.587143  1
  Li  Li7  1  0.317023  0.998577  0.087143  1
  Co  Co8  1  0.678349  0.751025  0.668619  1
  Co  Co9  1  0.821649  0.748976  0.168619  1
  Co  Co10  1  0.178107  0.251456  0.830759  1
  Co  Co11  1  0.321893  0.248540  0.330758  1
  Si  Si12  1  0.173513  0.751447  0.836406  1
  Si  Si13  1  0.326486  0.748549  0.336404  1
  Si  Si14  1  0.826366  0.249409  0.163060  1
  Si  Si15  1  0.673632  0.250591  0.663061  1
  O  O16  1  0.281956  0.969932  0.908141  1
  O  O17  1  0.218994  0.967066  0.408470  1
  O  O18  1  0.844489  0.752237  0.834892  1
  O  O19  1  0.219702  0.749974  0.192515  1
  O  O20  1  0.280296  0.750029  0.692517  1
  O  O21  1  0.655509  0.747761  0.334891  1
  O  O22  1  0.281006  0.532929  0.908471  1
  O  O23  1  0.218045  0.530064  0.408139  1
  O  O24  1  0.717884  0.467655  0.091013  1
  O  O25  1  0.781099  0.469265  0.591230  1
  O  O26  1  0.719788  0.248558  0.306979  1
  O  O27  1  0.344636  0.249649  0.664621  1
  O  O28  1  0.780211  0.251442  0.806979  1
  O  O29  1  0.155362  0.250352  0.164621  1
  O  O30  1  0.718899  0.030735  0.091229  1
  O  O31  1  0.782114  0.032346  0.591013  1
