# generated using pymatgen
data_Ba4Li6Ti19O44
_symmetry_space_group_name_H-M   'P 1'
_cell_length_a   5.85820441
_cell_length_b   10.07367348
_cell_length_c   14.17924863
_cell_angle_alpha   89.65037057
_cell_angle_beta   90.04083660
_cell_angle_gamma   89.99566205
_symmetry_Int_Tables_number   1
_chemical_formula_structural   Ba4Li6Ti19O44
_chemical_formula_sum   'Ba4 Li6 Ti19 O44'
_cell_volume   836.75325662
_cell_formula_units_Z   1
loop_
 _symmetry_equiv_pos_site_id
 _symmetry_equiv_pos_as_xyz
  1  'x, y, z'
loop_
 _atom_site_type_symbol
 _atom_site_label
 _atom_site_symmetry_multiplicity
 _atom_site_fract_x
 _atom_site_fract_y
 _atom_site_fract_z
 _atom_site_occupancy
  Ba  Ba0  1  0.250124  0.088401  0.411248  1
  Ba  Ba1  1  0.242816  0.404814  0.902355  1
  Ba  Ba2  1  0.754382  0.606334  0.101042  1
  Ba  Ba3  1  0.745728  0.908429  0.593617  1
  Li  Li4  1  0.009281  0.503171  0.475472  1
  Li  Li5  1  0.248396  0.390378  0.339467  1
  Li  Li6  1  0.460385  0.466864  0.488133  1
  Li  Li7  1  0.247603  0.078937  0.963227  1
  Li  Li8  1  0.728882  0.597839  0.564034  1
  Li  Li9  1  0.749896  0.924992  0.038475  1
  Ti  Ti10  1  0.993776  0.837199  0.830400  1
  Ti  Ti11  1  0.999562  0.153515  0.173742  1
  Ti  Ti12  1  0.993096  0.333553  0.664503  1
  Ti  Ti13  1  0.255937  0.883274  0.173198  1
  Ti  Ti14  1  0.246404  0.066287  0.667608  1
  Ti  Ti15  1  0.241390  0.422968  0.152904  1
  Ti  Ti16  1  0.248635  0.739396  0.999981  1
  Ti  Ti17  1  0.237850  0.758415  0.492002  1
  Ti  Ti18  1  0.238669  0.609798  0.669847  1
  Ti  Ti19  1  0.496227  0.333629  0.669654  1
  Ti  Ti20  1  0.505464  0.152117  0.177642  1
  Ti  Ti21  1  0.492365  0.836825  0.827683  1
  Ti  Ti22  1  0.488849  0.658787  0.328845  1
  Ti  Ti23  1  0.740120  0.229729  0.487380  1
  Ti  Ti24  1  0.764879  0.409080  0.322940  1
  Ti  Ti25  1  0.743757  0.573321  0.830370  1
  Ti  Ti26  1  0.748431  0.111334  0.834693  1
  Ti  Ti27  1  0.742931  0.273582  0.999482  1
  Ti  Ti28  1  0.771931  0.901255  0.337573  1
  O  O29  1  0.003194  0.469939  0.242833  1
  O  O30  1  0.997282  0.003289  0.749240  1
  O  O31  1  0.012430  0.322563  0.083014  1
  O  O32  1  0.998387  0.176919  0.586793  1
  O  O33  1  0.033038  0.821970  0.083706  1
  O  O34  1  0.019851  0.673142  0.579469  1
  O  O35  1  0.252472  0.073405  0.103692  1
  O  O36  1  0.244957  0.431647  0.598823  1
  O  O37  1  0.253064  0.247186  0.238326  1
  O  O38  1  0.246609  0.565927  0.068726  1
  O  O39  1  0.270749  0.743060  0.251046  1
  O  O40  1  0.250399  0.936143  0.577264  1
  O  O41  1  0.245324  0.897543  0.912492  1
  O  O42  1  0.243428  0.249663  0.736442  1
  O  O43  1  0.263539  0.598713  0.421165  1
  O  O44  1  0.239611  0.757824  0.753001  1
  O  O45  1  0.470945  0.821821  0.080792  1
  O  O46  1  0.455735  0.682997  0.588644  1
  O  O47  1  0.499183  0.328758  0.087399  1
  O  O48  1  0.493847  0.176247  0.587633  1
  O  O49  1  0.492675  0.002814  0.749042  1
  O  O50  1  0.491648  0.493066  0.251400  1
  O  O51  1  0.499837  0.996921  0.251183  1
  O  O52  1  0.495026  0.501405  0.749885  1
  O  O53  1  0.502715  0.824518  0.416056  1
  O  O54  1  0.497347  0.674362  0.910131  1
  O  O55  1  0.521632  0.313239  0.410504  1
  O  O56  1  0.528122  0.181659  0.916899  1
  O  O57  1  0.720308  0.554309  0.405714  1
  O  O58  1  0.742221  0.068161  0.430492  1
  O  O59  1  0.751228  0.104803  0.089002  1
  O  O60  1  0.753166  0.236609  0.245416  1
  O  O61  1  0.746304  0.258408  0.745152  1
  O  O62  1  0.738971  0.402399  0.581149  1
  O  O63  1  0.747591  0.435832  0.929940  1
  O  O64  1  0.735561  0.752915  0.268270  1
  O  O65  1  0.744269  0.749380  0.760066  1
  O  O66  1  0.742657  0.929729  0.897194  1
  O  O67  1  0.971599  0.325018  0.413322  1
  O  O68  1  0.964779  0.179044  0.916107  1
  O  O69  1  0.990981  0.675942  0.912222  1
  O  O70  1  0.000083  0.846836  0.423220  1
  O  O71  1  0.989854  0.502769  0.748726  1
  O  O72  1  -0.000321  0.994375  0.251036  1
