# generated using pymatgen
data_K11Mn4O16
_symmetry_space_group_name_H-M   'P 1'
_cell_length_a   10.46490471
_cell_length_b   10.46794303
_cell_length_c   10.47567682
_cell_angle_alpha   135.18120589
_cell_angle_beta   135.17239949
_cell_angle_gamma   65.19250613
_symmetry_Int_Tables_number   1
_chemical_formula_structural   K11Mn4O16
_chemical_formula_sum   'K11 Mn4 O16'
_cell_volume   562.13184795
_cell_formula_units_Z   1
loop_
 _symmetry_equiv_pos_site_id
 _symmetry_equiv_pos_as_xyz
  1  'x, y, z'
loop_
 _atom_site_type_symbol
 _atom_site_label
 _atom_site_symmetry_multiplicity
 _atom_site_fract_x
 _atom_site_fract_y
 _atom_site_fract_z
 _atom_site_occupancy
  K  K0  1  0.719150  0.071134  0.000240  1
  K  K1  1  0.749740  0.249427  0.498587  1
  K  K2  1  0.499126  0.998939  0.498741  1
  K  K3  1  0.289591  0.288198  0.999336  1
  K  K4  1  0.498688  0.500211  0.999634  1
  K  K5  1  0.710109  0.713168  0.000299  1
  K  K6  1  0.281099  0.279903  0.352157  1
  K  K7  1  0.071834  0.719866  0.000233  1
  K  K8  1  0.929050  0.927880  0.647862  1
  K  K9  1  0.250923  0.751106  0.501456  1
  K  K10  1  0.000776  0.500045  0.501517  1
  Mn  Mn11  1  0.860563  0.386491  0.000049  1
  Mn  Mn12  1  0.386592  0.860474  -0.000027  1
  Mn  Mn13  1  0.613614  0.613755  0.474312  1
  Mn  Mn14  1  0.139398  0.139444  0.525741  1
  O  O15  1  0.896770  0.213572  0.999869  1
  O  O16  1  0.413385  0.011310  0.000066  1
  O  O17  1  0.888449  0.586076  0.246695  1
  O  O18  1  0.660847  0.412430  0.300818  1
  O  O19  1  0.102619  0.102571  0.314390  1
  O  O20  1  0.010185  0.413366  0.000109  1
  O  O21  1  0.988171  0.988340  0.401679  1
  O  O22  1  0.360723  0.111550  0.699836  1
  O  O23  1  0.641715  0.339303  0.753198  1
  O  O24  1  0.587830  0.888447  0.248622  1
  O  O25  1  0.412284  0.660710  0.300798  1
  O  O26  1  0.586588  0.586811  0.597947  1
  O  O27  1  0.211777  0.897469  0.999884  1
  O  O28  1  0.787768  0.787571  0.684858  1
  O  O29  1  0.111477  0.360617  0.699804  1
  O  O30  1  0.339178  0.639839  0.751331  1
