# generated using pymatgen
data_Li2Fe(PO4)2
_symmetry_space_group_name_H-M   'P 1'
_cell_length_a   10.22978281
_cell_length_b   5.91241015
_cell_length_c   4.82500707
_cell_angle_alpha   88.64764832
_cell_angle_beta   89.74294945
_cell_angle_gamma   89.91065740
_symmetry_Int_Tables_number   1
_chemical_formula_structural   Li2Fe(PO4)2
_chemical_formula_sum   'Li4 Fe2 P4 O16'
_cell_volume   291.74478888
_cell_formula_units_Z   2
loop_
 _symmetry_equiv_pos_site_id
 _symmetry_equiv_pos_as_xyz
  1  'x, y, z'
loop_
 _atom_site_type_symbol
 _atom_site_label
 _atom_site_symmetry_multiplicity
 _atom_site_fract_x
 _atom_site_fract_y
 _atom_site_fract_z
 _atom_site_occupancy
  Li  Li0  1  0.000000  0.000000  0.000000  1
  Li  Li1  1  0.225683  0.747110  0.468737  1
  Li  Li2  1  0.500000  0.500000  0.500000  1
  Li  Li3  1  0.774317  0.252890  0.531263  1
  Fe  Fe4  1  0.278878  0.253143  0.983885  1
  Fe  Fe5  1  0.721122  0.746857  0.016115  1
  P  P6  1  0.102700  0.248918  0.415924  1
  P  P7  1  0.406368  0.751219  0.932330  1
  P  P8  1  0.593632  0.248781  0.067670  1
  P  P9  1  0.897300  0.751082  0.584076  1
  O  O10  1  0.042554  0.751842  0.658747  1
  O  O11  1  0.122803  0.238239  0.732424  1
  O  O12  1  0.169338  0.045134  0.261847  1
  O  O13  1  0.179796  0.447475  0.271126  1
  O  O14  1  0.335348  0.963249  0.811385  1
  O  O15  1  0.337431  0.543851  0.794804  1
  O  O16  1  0.404441  0.734719  0.247494  1
  O  O17  1  0.450239  0.252906  0.186336  1
  O  O18  1  0.549761  0.747094  0.813664  1
  O  O19  1  0.595559  0.265281  0.752506  1
  O  O20  1  0.664652  0.036751  0.188615  1
  O  O21  1  0.662569  0.456149  0.205196  1
  O  O22  1  0.820204  0.552525  0.728874  1
  O  O23  1  0.830662  0.954866  0.738153  1
  O  O24  1  0.877197  0.761760  0.267576  1
  O  O25  1  0.957446  0.248157  0.341253  1
