# generated using pymatgen
data_Li4Cr2Fe3O10
_symmetry_space_group_name_H-M   'P 1'
_cell_length_a   5.13503006
_cell_length_b   5.11496921
_cell_length_c   7.82996979
_cell_angle_alpha   72.04431246
_cell_angle_beta   107.66360695
_cell_angle_gamma   99.90403839
_symmetry_Int_Tables_number   1
_chemical_formula_structural   Li4Cr2Fe3O10
_chemical_formula_sum   'Li4 Cr2 Fe3 O10'
_cell_volume   185.71843876
_cell_formula_units_Z   1
loop_
 _symmetry_equiv_pos_site_id
 _symmetry_equiv_pos_as_xyz
  1  'x, y, z'
loop_
 _atom_site_type_symbol
 _atom_site_label
 _atom_site_symmetry_multiplicity
 _atom_site_fract_x
 _atom_site_fract_y
 _atom_site_fract_z
 _atom_site_occupancy
  Li  Li0  1  0.222293  0.499662  0.424904  1
  Li  Li1  1  0.508981  0.984631  0.508661  1
  Li  Li2  1  0.782328  0.497690  0.593518  1
  Li  Li3  1  0.611122  0.485609  0.223230  1
  Cr  Cr4  1  0.110497  0.006284  0.686161  1
  Cr  Cr5  1  0.897223  0.999090  0.305138  1
  Fe  Fe6  1  0.001604  0.499148  0.992026  1
  Fe  Fe7  1  0.310235  0.999801  0.110082  1
  Fe  Fe8  1  0.686199  0.994037  0.891654  1
  O  O9  1  0.035029  0.230875  0.855056  1
  O  O10  1  0.121954  0.786039  0.541447  1
  O  O11  1  0.332729  0.774795  0.941564  1
  O  O12  1  0.227348  0.254092  0.229320  1
  O  O13  1  0.438079  0.217903  0.663314  1
  O  O14  1  0.545454  0.770089  0.336744  1
  O  O15  1  0.792438  0.766386  0.762085  1
  O  O16  1  0.669510  0.229775  0.062305  1
  O  O17  1  0.873233  0.231398  0.461201  1
  O  O18  1  0.946489  0.759915  0.140002  1
