# generated using pymatgen
data_CoH8(CO5)2
_symmetry_space_group_name_H-M   'P 1'
_cell_length_a   11.01144721
_cell_length_b   6.03132735
_cell_length_c   6.45880821
_cell_angle_alpha   90.00000000
_cell_angle_beta   97.79664502
_cell_angle_gamma   90.00000000
_symmetry_Int_Tables_number   1
_chemical_formula_structural   CoH8(CO5)2
_chemical_formula_sum   'Co2 H16 C4 O20'
_cell_volume   424.98764769
_cell_formula_units_Z   2
loop_
 _symmetry_equiv_pos_site_id
 _symmetry_equiv_pos_as_xyz
  1  'x, y, z'
loop_
 _atom_site_type_symbol
 _atom_site_label
 _atom_site_symmetry_multiplicity
 _atom_site_fract_x
 _atom_site_fract_y
 _atom_site_fract_z
 _atom_site_occupancy
  Co  Co0  1  0.000000  0.000000  0.000000  1
  Co  Co1  1  0.500000  0.500000  0.500000  1
  H  H2  1  0.069413  0.316253  0.784600  1
  H  H3  1  0.017272  0.309728  0.228817  1
  H  H4  1  0.115315  0.088822  0.693324  1
  H  H5  1  0.139819  0.147387  0.310549  1
  H  H6  1  0.384685  0.588822  0.806676  1
  H  H7  1  0.360181  0.647387  0.189451  1
  H  H8  1  0.430587  0.816253  0.715400  1
  H  H9  1  0.482728  0.809728  0.271183  1
  H  H10  1  0.517272  0.190272  0.728817  1
  H  H11  1  0.569413  0.183747  0.284600  1
  H  H12  1  0.639819  0.352613  0.810549  1
  H  H13  1  0.615315  0.411178  0.193324  1
  H  H14  1  0.860181  0.852613  0.689451  1
  H  H15  1  0.884685  0.911178  0.306676  1
  H  H16  1  0.982728  0.690272  0.771183  1
  H  H17  1  0.930587  0.683747  0.215400  1
  C  C18  1  0.174605  0.655852  0.920830  1
  C  C19  1  0.325395  0.155852  0.579170  1
  C  C20  1  0.674605  0.844148  0.420830  1
  C  C21  1  0.825395  0.344148  0.079170  1
  O  O22  1  0.046300  0.152528  0.762704  1
  O  O23  1  0.099262  0.570628  0.772676  1
  O  O24  1  0.086552  0.210451  0.181974  1
  O  O25  1  0.142879  0.824598  0.032460  1
  O  O26  1  0.216431  0.084037  0.527838  1
  O  O27  1  0.283569  0.584037  0.972162  1
  O  O28  1  0.357121  0.324598  0.467540  1
  O  O29  1  0.400738  0.070628  0.727324  1
  O  O30  1  0.453700  0.652528  0.737296  1
  O  O31  1  0.413448  0.710451  0.318026  1
  O  O32  1  0.586552  0.289549  0.681974  1
  O  O33  1  0.546300  0.347472  0.262704  1
  O  O34  1  0.599262  0.929372  0.272676  1
  O  O35  1  0.642879  0.675402  0.532460  1
  O  O36  1  0.716431  0.415963  0.027838  1
  O  O37  1  0.783569  0.915963  0.472162  1
  O  O38  1  0.857121  0.175402  0.967540  1
  O  O39  1  0.913448  0.789549  0.818026  1
  O  O40  1  0.900738  0.429372  0.227324  1
  O  O41  1  0.953700  0.847472  0.237296  1
