# generated using pymatgen
data_Li2Co2(CO3)3
_symmetry_space_group_name_H-M   'P 1'
_cell_length_a   7.44234326
_cell_length_b   7.51294940
_cell_length_c   7.46001310
_cell_angle_alpha   108.90649272
_cell_angle_beta   107.36794858
_cell_angle_gamma   108.99343295
_symmetry_Int_Tables_number   1
_chemical_formula_structural   Li2Co2(CO3)3
_chemical_formula_sum   'Li4 Co4 C6 O18'
_cell_volume   332.91679443
_cell_formula_units_Z   2
loop_
 _symmetry_equiv_pos_site_id
 _symmetry_equiv_pos_as_xyz
  1  'x, y, z'
loop_
 _atom_site_type_symbol
 _atom_site_label
 _atom_site_symmetry_multiplicity
 _atom_site_fract_x
 _atom_site_fract_y
 _atom_site_fract_z
 _atom_site_occupancy
  Li  Li0  1  0.310273  0.610450  0.844611  1
  Li  Li1  1  0.586508  0.805928  0.306401  1
  Li  Li2  1  0.842796  0.849891  0.838169  1
  Li  Li3  1  0.812073  0.287168  0.564556  1
  Co  Co4  1  0.034898  0.535637  0.152044  1
  Co  Co5  1  0.419405  0.419080  0.439877  1
  Co  Co6  1  0.150527  0.036837  0.534821  1
  Co  Co7  1  0.533089  0.152680  0.035031  1
  C  C8  1  0.245350  0.923898  0.157403  1
  C  C9  1  0.400239  0.809110  0.586777  1
  C  C10  1  0.170769  0.256721  0.934255  1
  C  C11  1  0.806608  0.584714  0.404475  1
  C  C12  1  0.590678  0.402981  0.805615  1
  C  C13  1  0.925135  0.158073  0.243856  1
  O  O14  1  0.049283  0.780701  0.051874  1
  O  O15  1  0.383543  0.901755  0.085530  1
  O  O16  1  0.395292  0.978919  0.699361  1
  O  O17  1  0.356130  0.753215  0.388486  1
  O  O18  1  0.106004  0.397418  0.917190  1
  O  O19  1  0.448506  0.696181  0.670887  1
  O  O20  1  0.088651  0.334376  0.305410  1
  O  O21  1  0.344574  0.313943  0.094243  1
  O  O22  1  0.693236  0.666099  0.462750  1
  O  O23  1  0.059552  0.061485  0.785508  1
  O  O24  1  0.391586  0.362990  0.746094  1
  O  O25  1  0.678578  0.446466  0.690984  1
  O  O26  1  0.310029  0.086478  0.336019  1
  O  O27  1  0.696175  0.399666  0.976577  1
  O  O28  1  0.974615  0.700515  0.396938  1
  O  O29  1  0.752593  0.385808  0.351409  1
  O  O30  1  0.779353  0.052770  0.050067  1
  O  O31  1  0.902448  0.086744  0.381280  1
