# generated using pymatgen
data_LiMnF5
_symmetry_space_group_name_H-M   'P 1'
_cell_length_a   5.66396940
_cell_length_b   7.88090653
_cell_length_c   8.22196353
_cell_angle_alpha   90.00000000
_cell_angle_beta   90.00000000
_cell_angle_gamma   90.00000000
_symmetry_Int_Tables_number   1
_chemical_formula_structural   LiMnF5
_chemical_formula_sum   'Li4 Mn4 F20'
_cell_volume   367.00554090
_cell_formula_units_Z   4
loop_
 _symmetry_equiv_pos_site_id
 _symmetry_equiv_pos_as_xyz
  1  'x, y, z'
loop_
 _atom_site_type_symbol
 _atom_site_label
 _atom_site_symmetry_multiplicity
 _atom_site_fract_x
 _atom_site_fract_y
 _atom_site_fract_z
 _atom_site_occupancy
  Li  Li0  1  0.012366  0.774562  0.403950  1
  Li  Li1  1  0.487634  0.274562  0.596050  1
  Li  Li2  1  0.512366  0.725438  0.096050  1
  Li  Li3  1  0.987634  0.225438  0.903950  1
  Mn  Mn4  1  0.230677  0.401070  0.246331  1
  Mn  Mn5  1  0.269322  0.901070  0.753669  1
  Mn  Mn6  1  0.730678  0.098930  0.253669  1
  Mn  Mn7  1  0.769322  0.598930  0.746331  1
  F  F8  1  0.000689  0.020276  0.766055  1
  F  F9  1  0.078529  0.602408  0.246204  1
  F  F10  1  0.084637  0.698087  0.755093  1
  F  F11  1  0.206748  0.374294  0.026351  1
  F  F12  1  0.245119  0.387940  0.467329  1
  F  F13  1  0.254881  0.887940  0.532671  1
  F  F14  1  0.293252  0.874294  0.973649  1
  F  F15  1  0.415363  0.198087  0.244907  1
  F  F16  1  0.421471  0.102408  0.753796  1
  F  F17  1  0.499311  0.520276  0.233945  1
  F  F18  1  0.500689  0.479724  0.733945  1
  F  F19  1  0.578529  0.897592  0.253796  1
  F  F20  1  0.584637  0.801913  0.744907  1
  F  F21  1  0.706748  0.125706  0.473649  1
  F  F22  1  0.745119  0.112060  0.032671  1
  F  F23  1  0.754881  0.612060  0.967329  1
  F  F24  1  0.793252  0.625706  0.526351  1
  F  F25  1  0.915363  0.301913  0.255093  1
  F  F26  1  0.921471  0.397592  0.746204  1
  F  F27  1  0.999311  0.979724  0.266055  1
