# generated using pymatgen
data_Li8Mn7Fe(PO4)12
_symmetry_space_group_name_H-M   'P 1'
_cell_length_a   8.57066791
_cell_length_b   8.79515111
_cell_length_c   11.95575629
_cell_angle_alpha   89.78373783
_cell_angle_beta   89.94647405
_cell_angle_gamma   89.82740586
_symmetry_Int_Tables_number   1
_chemical_formula_structural   Li8Mn7Fe(PO4)12
_chemical_formula_sum   'Li8 Mn7 Fe1 P12 O48'
_cell_volume   901.21783522
_cell_formula_units_Z   1
loop_
 _symmetry_equiv_pos_site_id
 _symmetry_equiv_pos_as_xyz
  1  'x, y, z'
loop_
 _atom_site_type_symbol
 _atom_site_label
 _atom_site_symmetry_multiplicity
 _atom_site_fract_x
 _atom_site_fract_y
 _atom_site_fract_z
 _atom_site_occupancy
  Li  Li0  1  0.215519  0.721945  0.180990  1
  Li  Li1  1  0.214330  0.777489  0.819694  1
  Li  Li2  1  0.285301  0.222356  0.317983  1
  Li  Li3  1  0.285209  0.279669  0.681414  1
  Li  Li4  1  0.716369  0.721146  0.320062  1
  Li  Li5  1  0.716191  0.775693  0.681524  1
  Li  Li6  1  0.784496  0.222690  0.180748  1
  Li  Li7  1  0.783872  0.278449  0.818958  1
  Mn  Mn8  1  0.246985  0.962826  0.613129  1
  Mn  Mn9  1  0.248468  0.535771  0.385617  1
  Mn  Mn10  1  0.251838  0.036586  0.113297  1
  Mn  Mn11  1  0.250735  0.465041  0.886122  1
  Mn  Mn12  1  0.748100  0.536353  0.115116  1
  Mn  Mn13  1  0.747944  0.963105  0.886721  1
  Mn  Mn14  1  0.752056  0.036559  0.386003  1
  Fe  Fe15  1  0.752897  0.462642  0.614051  1
  P  P16  1  0.038118  0.246242  0.499575  1
  P  P17  1  0.464140  0.750694  0.999776  1
  P  P18  1  0.535440  0.249786  0.999919  1
  P  P19  1  0.965542  0.750697  0.500775  1
  P  P20  1  0.105430  0.394062  0.147030  1
  P  P21  1  0.105632  0.106142  0.852019  1
  P  P22  1  0.392678  0.609391  0.645596  1
  P  P23  1  0.394010  0.893765  0.352907  1
  P  P24  1  0.605223  0.104209  0.647039  1
  P  P25  1  0.604050  0.393870  0.351577  1
  P  P26  1  0.894062  0.605493  0.856524  1
  P  P27  1  0.894064  0.894157  0.147364  1
  O  O28  1  0.059160  0.644371  0.425164  1
  O  O29  1  0.059763  0.860043  0.575476  1
  O  O30  1  0.074950  0.897284  0.157419  1
  O  O31  1  0.074551  0.605523  0.845168  1
  O  O32  1  0.147337  0.156379  0.582728  1
  O  O33  1  0.146776  0.332119  0.418544  1
  O  O34  1  0.155964  0.438224  0.029013  1
  O  O35  1  0.155437  0.060825  0.970795  1
  O  O36  1  0.159618  0.232065  0.179995  1
  O  O37  1  0.158199  0.265466  0.818415  1
  O  O38  1  0.177660  0.515329  0.226824  1
  O  O39  1  0.178382  0.983188  0.773023  1
  O  O40  1  0.321301  0.016198  0.273822  1
  O  O41  1  0.318700  0.489640  0.726064  1
  O  O42  1  0.334686  0.772432  0.677155  1
  O  O43  1  0.341101  0.734005  0.319745  1
  O  O44  1  0.343429  0.563074  0.527735  1
  O  O45  1  0.344783  0.938191  0.472229  1
  O  O46  1  0.356963  0.837798  0.083521  1
  O  O47  1  0.358248  0.667215  0.917238  1
  O  O48  1  0.423567  0.100368  0.657011  1
  O  O49  1  0.424124  0.396167  0.340231  1
  O  O50  1  0.441988  0.141546  0.075592  1
  O  O51  1  0.442205  0.356912  0.924369  1
  O  O52  1  0.556681  0.643698  0.075666  1
  O  O53  1  0.558253  0.858989  0.923941  1
  O  O54  1  0.571396  0.608038  0.657365  1
  O  O55  1  0.574618  0.896120  0.342986  1
  O  O56  1  0.643509  0.335215  0.081089  1
  O  O57  1  0.644372  0.160911  0.917078  1
  O  O58  1  0.655278  0.060311  0.528451  1
  O  O59  1  0.656446  0.438434  0.468493  1
  O  O60  1  0.657761  0.231815  0.318828  1
  O  O61  1  0.656955  0.265316  0.679873  1
  O  O62  1  0.676726  0.515044  0.271009  1
  O  O63  1  0.677857  0.982130  0.726911  1
  O  O64  1  0.821332  0.016212  0.226582  1
  O  O65  1  0.822964  0.485688  0.777519  1
  O  O66  1  0.841585  0.734131  0.181172  1
  O  O67  1  0.840244  0.768863  0.822056  1
  O  O68  1  0.845824  0.566169  0.975910  1
  O  O69  1  0.844242  0.939287  0.028460  1
  O  O70  1  0.858003  0.663873  0.582306  1
  O  O71  1  0.858234  0.838304  0.417399  1
  O  O72  1  0.924774  0.102810  0.841746  1
  O  O73  1  0.925834  0.395336  0.158529  1
  O  O74  1  0.944783  0.139369  0.423751  1
  O  O75  1  0.944743  0.352753  0.574080  1
