# generated using pymatgen
data_Li8Fe3Ni7O20
_symmetry_space_group_name_H-M   'P 1'
_cell_length_a   5.17260831
_cell_length_b   2.87956499
_cell_length_c   23.86792418
_cell_angle_alpha   90.00000000
_cell_angle_beta   93.54599065
_cell_angle_gamma   90.00000000
_symmetry_Int_Tables_number   1
_chemical_formula_structural   Li8Fe3Ni7O20
_chemical_formula_sum   'Li8 Fe3 Ni7 O20'
_cell_volume   354.82880011
_cell_formula_units_Z   1
loop_
 _symmetry_equiv_pos_site_id
 _symmetry_equiv_pos_as_xyz
  1  'x, y, z'
loop_
 _atom_site_type_symbol
 _atom_site_label
 _atom_site_symmetry_multiplicity
 _atom_site_fract_x
 _atom_site_fract_y
 _atom_site_fract_z
 _atom_site_occupancy
  Li  Li0  1  0.100000  0.500000  0.800000  1
  Li  Li1  1  0.100000  0.000000  0.300000  1
  Li  Li2  1  0.297245  0.000000  0.901180  1
  Li  Li3  1  0.498666  0.500000  0.000005  1
  Li  Li4  1  0.482186  0.000000  0.491413  1
  Li  Li5  1  0.701334  0.500000  0.599995  1
  Li  Li6  1  0.902755  0.000000  0.698820  1
  Li  Li7  1  0.717814  0.000000  0.108587  1
  Fe  Fe8  1  0.406594  0.500000  0.697078  1
  Fe  Fe9  1  0.600000  0.000000  0.800000  1
  Fe  Fe10  1  0.793406  0.500000  0.902922  1
  Ni  Ni11  1  0.197814  0.000000  0.597863  1
  Ni  Ni12  1  0.002186  0.000000  0.002137  1
  Ni  Ni13  1  0.207390  0.500000  0.100761  1
  Ni  Ni14  1  0.401797  0.000000  0.201407  1
  Ni  Ni15  1  0.600000  0.500000  0.300000  1
  Ni  Ni16  1  0.798203  0.000000  0.398593  1
  Ni  Ni17  1  0.992610  0.500000  0.499239  1
  O  O18  1  0.126740  0.500000  0.953288  1
  O  O19  1  0.073260  0.500000  0.646712  1
  O  O20  1  0.116653  0.000000  0.457281  1
  O  O21  1  0.269957  0.000000  0.748178  1
  O  O22  1  0.083347  0.000000  0.142719  1
  O  O23  1  0.302764  0.500000  0.546735  1
  O  O24  1  0.299234  0.500000  0.252047  1
  O  O25  1  0.460927  0.500000  0.849914  1
  O  O26  1  0.338705  0.000000  0.057349  1
  O  O27  1  0.547636  0.000000  0.648023  1
  O  O28  1  0.652364  0.000000  0.951977  1
  O  O29  1  0.474544  0.000000  0.342347  1
  O  O30  1  0.504804  0.500000  0.149809  1
  O  O31  1  0.739073  0.500000  0.750086  1
  O  O32  1  0.695196  0.500000  0.450191  1
  O  O33  1  0.725456  0.000000  0.257653  1
  O  O34  1  0.930043  0.000000  0.851823  1
  O  O35  1  0.861295  0.000000  0.542651  1
  O  O36  1  0.900766  0.500000  0.347953  1
  O  O37  1  0.897236  0.500000  0.053265  1
