# generated using pymatgen
data_LiTi3V(PO4)6
_symmetry_space_group_name_H-M   'P 1'
_cell_length_a   8.77236388
_cell_length_b   8.77236386
_cell_length_c   8.77236367
_cell_angle_alpha   58.72793653
_cell_angle_beta   58.72793166
_cell_angle_gamma   58.72793679
_symmetry_Int_Tables_number   1
_chemical_formula_structural   LiTi3V(PO4)6
_chemical_formula_sum   'Li1 Ti3 V1 P6 O24'
_cell_volume   463.47507831
_cell_formula_units_Z   1
loop_
 _symmetry_equiv_pos_site_id
 _symmetry_equiv_pos_as_xyz
  1  'x, y, z'
loop_
 _atom_site_type_symbol
 _atom_site_label
 _atom_site_symmetry_multiplicity
 _atom_site_fract_x
 _atom_site_fract_y
 _atom_site_fract_z
 _atom_site_occupancy
  Li  Li0  1  0.001324  0.001324  0.001324  1
  Ti  Ti1  1  0.144694  0.144694  0.144694  1
  Ti  Ti2  1  0.360852  0.360852  0.360852  1
  Ti  Ti3  1  0.638978  0.638978  0.638978  1
  V  V4  1  0.855206  0.855206  0.855206  1
  P  P5  1  0.032542  0.750747  0.463142  1
  P  P6  1  0.463142  0.032542  0.750747  1
  P  P7  1  0.750747  0.463142  0.032542  1
  P  P8  1  0.246465  0.538762  0.966808  1
  P  P9  1  0.538762  0.966808  0.246465  1
  P  P10  1  0.966808  0.246465  0.538762  1
  O  O11  1  0.139523  0.273734  0.510089  1
  O  O12  1  0.273734  0.510089  0.139523  1
  O  O13  1  0.059007  0.923226  0.279859  1
  O  O14  1  0.510089  0.139523  0.273734  1
  O  O15  1  0.213295  0.577019  0.445175  1
  O  O16  1  0.997013  0.789196  0.637402  1
  O  O17  1  0.279859  0.059007  0.923226  1
  O  O18  1  0.445175  0.213295  0.577019  1
  O  O19  1  0.577019  0.445175  0.213295  1
  O  O20  1  0.211361  0.368909  0.996688  1
  O  O21  1  0.071148  0.724598  0.937250  1
  O  O22  1  0.368909  0.996688  0.211361  1
  O  O23  1  0.637402  0.997013  0.789196  1
  O  O24  1  0.923226  0.279859  0.059007  1
  O  O25  1  0.789196  0.637402  0.997013  1
  O  O26  1  0.417592  0.566214  0.784963  1
  O  O27  1  0.566214  0.784963  0.417592  1
  O  O28  1  0.724598  0.937250  0.071148  1
  O  O29  1  0.996688  0.211361  0.368909  1
  O  O30  1  0.784963  0.417592  0.566214  1
  O  O31  1  0.496859  0.860813  0.719547  1
  O  O32  1  0.937250  0.071148  0.724598  1
  O  O33  1  0.719547  0.496859  0.860813  1
  O  O34  1  0.860813  0.719547  0.496859  1
