# generated using pymatgen
data_Li4MnCr2Fe3(PO4)6
_symmetry_space_group_name_H-M   'P 1'
_cell_length_a   8.37551396
_cell_length_b   8.70176856
_cell_length_c   8.56800033
_cell_angle_alpha   62.79518938
_cell_angle_beta   63.90202055
_cell_angle_gamma   63.59354751
_symmetry_Int_Tables_number   1
_chemical_formula_structural   Li4MnCr2Fe3(PO4)6
_chemical_formula_sum   'Li4 Mn1 Cr2 Fe3 P6 O24'
_cell_volume   474.98097352
_cell_formula_units_Z   1
loop_
 _symmetry_equiv_pos_site_id
 _symmetry_equiv_pos_as_xyz
  1  'x, y, z'
loop_
 _atom_site_type_symbol
 _atom_site_label
 _atom_site_symmetry_multiplicity
 _atom_site_fract_x
 _atom_site_fract_y
 _atom_site_fract_z
 _atom_site_occupancy
  Li  Li0  1  0.749122  0.141652  0.359105  1
  Li  Li1  1  0.253170  0.839680  0.657856  1
  Li  Li2  1  0.648571  0.250758  0.843892  1
  Li  Li3  1  0.850437  0.655793  0.250229  1
  Mn  Mn4  1  0.847419  0.839277  0.842839  1
  Cr  Cr5  1  0.003801  -0.000131  0.994640  1
  Cr  Cr6  1  0.496857  0.505933  0.498330  1
  Fe  Fe7  1  0.147697  0.148405  0.142393  1
  Fe  Fe8  1  0.351091  0.356057  0.353608  1
  Fe  Fe9  1  0.651022  0.655991  0.657544  1
  P  P10  1  0.250595  0.541270  0.955139  1
  P  P11  1  0.555854  0.961816  0.252646  1
  P  P12  1  0.945244  0.248439  0.539469  1
  P  P13  1  0.066631  0.748062  0.439849  1
  P  P14  1  0.432073  0.057531  0.752604  1
  P  P15  1  0.749336  0.440820  0.062462  1
  O  O16  1  0.105937  0.323697  0.475782  1
  O  O17  1  0.327122  0.496025  0.109620  1
  O  O18  1  0.070423  0.911259  0.253845  1
  O  O19  1  0.534328  0.108517  0.320743  1
  O  O20  1  0.045770  0.807644  0.593209  1
  O  O21  1  0.257984  0.593230  0.418013  1
  O  O22  1  0.239360  0.079998  0.907748  1
  O  O23  1  0.423841  0.240088  0.589261  1
  O  O24  1  0.178826  0.387564  0.998292  1
  O  O25  1  0.597867  0.411884  0.257772  1
  O  O26  1  0.100441  0.731940  0.936138  1
  O  O27  1  0.391987  0.021332  0.180692  1
  O  O28  1  0.591003  0.029074  0.817064  1
  O  O29  1  0.899780  0.247764  0.089710  1
  O  O30  1  0.402043  0.562398  0.761230  1
  O  O31  1  0.809645  0.593769  0.039645  1
  O  O32  1  0.566360  0.771155  0.402548  1
  O  O33  1  0.751471  0.935277  0.100715  1
  O  O34  1  0.749599  0.399218  0.563482  1
  O  O35  1  0.968101  0.175045  0.395190  1
  O  O36  1  0.458698  0.900588  0.696684  1
  O  O37  1  0.935741  0.102348  0.734924  1
  O  O38  1  0.689814  0.470528  0.902884  1
  O  O39  1  0.904942  0.685303  0.475205  1
