# generated using pymatgen
data_V6O7F5
_symmetry_space_group_name_H-M   'P 1'
_cell_length_a   4.69653991
_cell_length_b   4.69653991
_cell_length_c   9.28552339
_cell_angle_alpha   89.92944904
_cell_angle_beta   90.07055096
_cell_angle_gamma   92.53175062
_symmetry_Int_Tables_number   1
_chemical_formula_structural   V6O7F5
_chemical_formula_sum   'V6 O7 F5'
_cell_volume   204.61509484
_cell_formula_units_Z   1
loop_
 _symmetry_equiv_pos_site_id
 _symmetry_equiv_pos_as_xyz
  1  'x, y, z'
loop_
 _atom_site_type_symbol
 _atom_site_label
 _atom_site_symmetry_multiplicity
 _atom_site_fract_x
 _atom_site_fract_y
 _atom_site_fract_z
 _atom_site_occupancy
  V  V0  1  0.987320  0.004461  0.006957  1
  V  V1  1  0.024767  0.024767  0.333333  1
  V  V2  1  0.004461  0.987320  0.659709  1
  V  V3  1  0.522663  0.467759  0.158860  1
  V  V4  1  0.493600  0.493600  0.833333  1
  V  V5  1  0.467759  0.522663  0.507806  1
  O  O6  1  0.185709  0.813654  0.499361  1
  O  O7  1  0.317781  0.317781  0.333333  1
  O  O8  1  0.305787  0.292430  0.989108  1
  O  O9  1  0.292430  0.305787  0.677559  1
  O  O10  1  0.695656  0.683918  0.991627  1
  O  O11  1  0.683918  0.695656  0.675038  1
  O  O12  1  0.813654  0.185709  0.167306  1
  F  F13  1  0.211699  0.796660  0.166925  1
  F  F14  1  0.192049  0.797577  0.836304  1
  F  F15  1  0.706507  0.706507  0.333333  1
  F  F16  1  0.797577  0.192049  0.830363  1
  F  F17  1  0.796660  0.211699  0.499742  1
