# generated using pymatgen
data_LiCoPO4F
_symmetry_space_group_name_H-M   'P 1'
_cell_length_a   5.11787883
_cell_length_b   13.31976672
_cell_length_c   11.28037481
_cell_angle_alpha   90.00000000
_cell_angle_beta   90.33201900
_cell_angle_gamma   90.00000000
_symmetry_Int_Tables_number   1
_chemical_formula_structural   LiCoPO4F
_chemical_formula_sum   'Li8 Co8 P8 O32 F8'
_cell_volume   768.95841995
_cell_formula_units_Z   8
loop_
 _symmetry_equiv_pos_site_id
 _symmetry_equiv_pos_as_xyz
  1  'x, y, z'
loop_
 _atom_site_type_symbol
 _atom_site_label
 _atom_site_symmetry_multiplicity
 _atom_site_fract_x
 _atom_site_fract_y
 _atom_site_fract_z
 _atom_site_occupancy
  Li  Li0  1  0.211828  0.229875  0.179859  1
  Li  Li1  1  0.211828  0.770125  0.679859  1
  Li  Li2  1  0.672409  0.242803  0.814379  1
  Li  Li3  1  0.672409  0.757197  0.314379  1
  Li  Li4  1  0.785054  0.642657  0.105745  1
  Li  Li5  1  0.785054  0.357343  0.605745  1
  Li  Li6  1  0.790865  0.776059  0.813805  1
  Li  Li7  1  0.790865  0.223941  0.313805  1
  Co  Co8  1  0.218916  0.519698  0.169357  1
  Co  Co9  1  0.218916  0.480302  0.669357  1
  Co  Co10  1  0.283911  0.981363  0.670887  1
  Co  Co11  1  0.283911  0.018637  0.170887  1
  Co  Co12  1  0.716096  0.984885  0.830722  1
  Co  Co13  1  0.716096  0.015115  0.330722  1
  Co  Co14  1  0.786909  0.523976  0.337984  1
  Co  Co15  1  0.786909  0.476024  0.837984  1
  P  P16  1  0.206274  0.123117  0.908137  1
  P  P17  1  0.206274  0.876883  0.408137  1
  P  P18  1  0.289382  0.380963  0.404548  1
  P  P19  1  0.289382  0.619037  0.904548  1
  P  P20  1  0.705035  0.379638  0.097380  1
  P  P21  1  0.705035  0.620362  0.597380  1
  P  P22  1  0.806818  0.117941  0.591242  1
  P  P23  1  0.806818  0.882059  0.091242  1
  O  O24  1  0.101012  0.092475  0.609617  1
  O  O25  1  0.101012  0.907525  0.109617  1
  O  O26  1  0.150050  0.471529  0.339315  1
  O  O27  1  0.150050  0.528471  0.839315  1
  O  O28  1  0.197797  0.282504  0.353702  1
  O  O29  1  0.197797  0.717496  0.853702  1
  O  O30  1  0.204539  0.607212  0.037048  1
  O  O31  1  0.204539  0.392788  0.537048  1
  O  O32  1  0.232735  0.111775  0.045453  1
  O  O33  1  0.232735  0.888225  0.545453  1
  O  O34  1  0.318999  0.221611  0.870162  1
  O  O35  1  0.318999  0.778389  0.370162  1
  O  O36  1  0.355446  0.967851  0.348461  1
  O  O37  1  0.355446  0.032149  0.848461  1
  O  O38  1  0.409367  0.395869  0.126172  1
  O  O39  1  0.409367  0.604131  0.626172  1
  O  O40  1  0.592099  0.599754  0.895857  1
  O  O41  1  0.592099  0.400246  0.395857  1
  O  O42  1  0.648628  0.034339  0.657895  1
  O  O43  1  0.648628  0.965661  0.157895  1
  O  O44  1  0.738061  0.220679  0.637530  1
  O  O45  1  0.738061  0.779321  0.137530  1
  O  O46  1  0.738985  0.110271  0.456619  1
  O  O47  1  0.738985  0.889729  0.956619  1
  O  O48  1  0.738403  0.384937  0.959058  1
  O  O49  1  0.738403  0.615063  0.459058  1
  O  O50  1  0.815243  0.283753  0.147356  1
  O  O51  1  0.815243  0.716247  0.647356  1
  O  O52  1  0.852174  0.474232  0.147552  1
  O  O53  1  0.852174  0.525768  0.647552  1
  O  O54  1  0.910029  0.107986  0.872700  1
  O  O55  1  0.910029  0.892014  0.372700  1
  F  F56  1  0.001529  0.092418  0.254588  1
  F  F57  1  0.993210  0.629007  0.250609  1
  F  F58  1  0.993210  0.370993  0.750609  1
  F  F59  1  0.001529  0.907582  0.754588  1
  F  F60  1  0.514865  0.589378  0.239238  1
  F  F61  1  0.503006  0.131278  0.248340  1
  F  F62  1  0.514865  0.410622  0.739238  1
  F  F63  1  0.503006  0.868722  0.748340  1
