# generated using pymatgen
data_LiZnCr3(SO4)6
_symmetry_space_group_name_H-M   'P 1'
_cell_length_a   8.31210064
_cell_length_b   8.90014658
_cell_length_c   8.31728261
_cell_angle_alpha   117.79625355
_cell_angle_beta   60.36149720
_cell_angle_gamma   117.67196674
_symmetry_Int_Tables_number   1
_chemical_formula_structural   LiZnCr3(SO4)6
_chemical_formula_sum   'Li1 Zn1 Cr3 S6 O24'
_cell_volume   450.68711601
_cell_formula_units_Z   1
loop_
 _symmetry_equiv_pos_site_id
 _symmetry_equiv_pos_as_xyz
  1  'x, y, z'
loop_
 _atom_site_type_symbol
 _atom_site_label
 _atom_site_symmetry_multiplicity
 _atom_site_fract_x
 _atom_site_fract_y
 _atom_site_fract_z
 _atom_site_occupancy
  Li  Li0  1  0.771958  0.370748  0.419909  1
  Zn  Zn1  1  0.167526  0.454655  0.139187  1
  Cr  Cr2  1  0.353448  0.061281  0.350713  1
  Cr  Cr3  1  0.643941  0.932239  0.645268  1
  Cr  Cr4  1  0.851170  0.550333  0.852529  1
  S  S5  1  0.037728  0.250600  0.469128  1
  S  S6  1  0.540940  0.750239  0.253757  1
  S  S7  1  0.254860  0.750368  0.953906  1
  S  S8  1  0.748373  0.251066  0.037692  1
  S  S9  1  0.465502  0.246956  0.742758  1
  S  S10  1  0.955970  0.750709  0.543524  1
  O  O11  1  0.299139  0.923191  0.105721  1
  O  O12  1  0.109044  0.917287  0.509713  1
  O  O13  1  0.004012  0.295299  0.339212  1
  O  O14  1  0.024829  0.395448  0.659302  1
  O  O15  1  0.352326  0.611083  0.289348  1
  O  O16  1  0.048253  0.706713  0.983030  1
  O  O17  1  0.518270  0.923624  0.297063  1
  O  O18  1  0.234392  0.231769  0.379636  1
  O  O19  1  0.674652  0.704393  0.048281  1
  O  O20  1  0.380061  0.775084  0.759268  1
  O  O21  1  0.634084  0.774838  0.381220  1
  O  O22  1  0.291212  0.610076  0.965540  1
  O  O23  1  0.713686  0.394330  0.024413  1
  O  O24  1  0.384716  0.231545  0.609452  1
  O  O25  1  0.619013  0.235876  0.240264  1
  O  O26  1  0.339818  0.292991  0.945383  1
  O  O27  1  0.761356  0.775418  0.634654  1
  O  O28  1  0.495910  0.076818  0.686991  1
  O  O29  1  0.949392  0.293565  0.014717  1
  O  O30  1  0.660828  0.392196  0.705157  1
  O  O31  1  0.960359  0.600129  0.359394  1
  O  O32  1  0.983017  0.708296  0.679476  1
  O  O33  1  0.892593  0.079179  0.497024  1
  O  O34  1  0.687922  0.078058  0.898171  1
