# generated using pymatgen
data_Li4Ti3Mn3Cr2O16
_symmetry_space_group_name_H-M   'P 1'
_cell_length_a   5.89489468
_cell_length_b   5.98015931
_cell_length_c   9.58415797
_cell_angle_alpha   90.03501847
_cell_angle_beta   90.30817519
_cell_angle_gamma   120.48312046
_symmetry_Int_Tables_number   1
_chemical_formula_structural   Li4Ti3Mn3Cr2O16
_chemical_formula_sum   'Li4 Ti3 Mn3 Cr2 O16'
_cell_volume   291.15815084
_cell_formula_units_Z   1
loop_
 _symmetry_equiv_pos_site_id
 _symmetry_equiv_pos_as_xyz
  1  'x, y, z'
loop_
 _atom_site_type_symbol
 _atom_site_label
 _atom_site_symmetry_multiplicity
 _atom_site_fract_x
 _atom_site_fract_y
 _atom_site_fract_z
 _atom_site_occupancy
  Li  Li0  1  0.343363  0.671528  0.890274  1
  Li  Li1  1  0.998677  0.999345  0.995221  1
  Li  Li2  1  0.984089  0.992117  0.496810  1
  Li  Li3  1  0.661851  0.330921  0.393504  1
  Ti  Ti4  1  0.170190  0.832411  0.214461  1
  Ti  Ti5  1  0.170138  0.337802  0.214529  1
  Ti  Ti6  1  0.334812  0.167700  0.711719  1
  Mn  Mn7  1  0.662508  0.831244  0.211840  1
  Mn  Mn8  1  0.831079  0.659189  0.713610  1
  Mn  Mn9  1  0.830600  0.171690  0.713719  1
  Cr  Cr10  1  0.329826  0.665237  0.486394  1
  Cr  Cr11  1  0.679577  0.339631  0.982518  1
  O  O12  1  0.160806  0.839078  0.603574  1
  O  O13  1  0.034812  0.517471  0.335235  1
  O  O14  1  0.339615  0.669713  0.106296  1
  O  O15  1  0.993417  0.996776  0.309196  1
  O  O16  1  0.995845  0.998396  0.808249  1
  O  O17  1  0.160812  0.321913  0.603645  1
  O  O18  1  0.464948  0.956900  0.345199  1
  O  O19  1  0.465096  0.508278  0.345220  1
  O  O20  1  0.333160  0.166504  0.106819  1
  O  O21  1  0.663180  0.832333  0.601806  1
  O  O22  1  0.523943  0.479082  0.836735  1
  O  O23  1  0.523696  0.044606  0.836677  1
  O  O24  1  0.664388  0.331718  0.605617  1
  O  O25  1  0.854891  0.673236  0.098519  1
  O  O26  1  0.969909  0.484001  0.841835  1
  O  O27  1  0.854773  0.181477  0.098617  1
