# generated using pymatgen
data_Ti3Co3(SbO8)2
_symmetry_space_group_name_H-M   'P 1'
_cell_length_a   5.79539091
_cell_length_b   5.84997527
_cell_length_c   9.32416805
_cell_angle_alpha   89.93965628
_cell_angle_beta   88.98210215
_cell_angle_gamma   120.28784163
_symmetry_Int_Tables_number   1
_chemical_formula_structural   Ti3Co3(SbO8)2
_chemical_formula_sum   'Ti3 Co3 Sb2 O16'
_cell_volume   272.90579412
_cell_formula_units_Z   1
loop_
 _symmetry_equiv_pos_site_id
 _symmetry_equiv_pos_as_xyz
  1  'x, y, z'
loop_
 _atom_site_type_symbol
 _atom_site_label
 _atom_site_symmetry_multiplicity
 _atom_site_fract_x
 _atom_site_fract_y
 _atom_site_fract_z
 _atom_site_occupancy
  Ti  Ti0  1  0.157983  0.826340  0.213704  1
  Ti  Ti1  1  0.159032  0.331486  0.213732  1
  Ti  Ti2  1  0.314400  0.151821  0.711221  1
  Co  Co3  1  0.651560  0.825058  0.211063  1
  Co  Co4  1  0.819891  0.654508  0.714538  1
  Co  Co5  1  0.827626  0.171753  0.711810  1
  Sb  Sb6  1  0.351039  0.672003  0.490888  1
  Sb  Sb7  1  0.674699  0.334995  0.985083  1
  O  O8  1  0.169895  0.836339  0.600227  1
  O  O9  1  0.041773  0.519929  0.344005  1
  O  O10  1  0.325379  0.662494  0.104223  1
  O  O11  1  0.988612  0.993779  0.308830  1
  O  O12  1  0.981512  0.987291  0.808948  1
  O  O13  1  0.172455  0.334152  0.601466  1
  O  O14  1  0.487418  0.961614  0.337638  1
  O  O15  1  0.488385  0.523561  0.337139  1
  O  O16  1  0.343525  0.171884  0.104744  1
  O  O17  1  0.684334  0.843284  0.601507  1
  O  O18  1  0.524468  0.489925  0.836805  1
  O  O19  1  0.519510  0.040935  0.837192  1
  O  O20  1  0.681127  0.349502  0.612386  1
  O  O21  1  0.834591  0.664978  0.100626  1
  O  O22  1  0.965216  0.484064  0.827539  1
  O  O23  1  0.835567  0.168502  0.100411  1
