# generated using pymatgen
data_Li2VCrO4
_symmetry_space_group_name_H-M   'P 1'
_cell_length_a   5.16749422
_cell_length_b   2.96941497
_cell_length_c   5.20646208
_cell_angle_alpha   90.03903317
_cell_angle_beta   70.03163556
_cell_angle_gamma   89.95756885
_symmetry_Int_Tables_number   1
_chemical_formula_structural   Li2VCrO4
_chemical_formula_sum   'Li2 V1 Cr1 O4'
_cell_volume   75.08726545
_cell_formula_units_Z   1
loop_
 _symmetry_equiv_pos_site_id
 _symmetry_equiv_pos_as_xyz
  1  'x, y, z'
loop_
 _atom_site_type_symbol
 _atom_site_label
 _atom_site_symmetry_multiplicity
 _atom_site_fract_x
 _atom_site_fract_y
 _atom_site_fract_z
 _atom_site_occupancy
  Li  Li0  1  0.000000  0.500000  0.500000  1
  Li  Li1  1  0.000000  0.000000  0.999999  1
  V  V2  1  0.500000  0.000000  0.500000  1
  Cr  Cr3  1  0.499999  0.500000  0.000001  1
  O  O4  1  0.727695  0.999226  0.759885  1
  O  O5  1  0.272876  0.500094  0.745001  1
  O  O6  1  0.727124  0.499906  0.254999  1
  O  O7  1  0.272305  0.000774  0.240116  1
