# generated using pymatgen
data_Mn(PO3)3
_symmetry_space_group_name_H-M   'P 1'
_cell_length_a   11.77262241
_cell_length_b   11.77262241
_cell_length_c   9.43979637
_cell_angle_alpha   71.01036966
_cell_angle_beta   108.98963034
_cell_angle_gamma   68.23399647
_symmetry_Int_Tables_number   1
_chemical_formula_structural   Mn(PO3)3
_chemical_formula_sum   'Mn6 P18 O54'
_cell_volume   989.65468095
_cell_formula_units_Z   6
loop_
 _symmetry_equiv_pos_site_id
 _symmetry_equiv_pos_as_xyz
  1  'x, y, z'
loop_
 _atom_site_type_symbol
 _atom_site_label
 _atom_site_symmetry_multiplicity
 _atom_site_fract_x
 _atom_site_fract_y
 _atom_site_fract_z
 _atom_site_occupancy
  Mn  Mn0  1  0.073736  0.416516  0.539015  1
  Mn  Mn1  1  0.437928  0.739143  0.576253  1
  Mn  Mn2  1  0.583484  0.926264  0.039015  1
  Mn  Mn3  1  0.260857  0.562072  0.076253  1
  Mn  Mn4  1  0.766677  0.073892  0.571082  1
  Mn  Mn5  1  0.926108  0.233323  0.071082  1
  P  P6  1  0.133626  0.905263  0.849219  1
  P  P7  1  0.329164  0.943668  0.723552  1
  P  P8  1  0.995150  0.605221  0.718473  1
  P  P9  1  0.094737  0.866374  0.349219  1
  P  P10  1  0.114548  0.156210  0.886953  1
  P  P11  1  0.056332  0.670836  0.223552  1
  P  P12  1  0.780599  0.830443  0.878318  1
  P  P13  1  0.465617  0.477866  0.914515  1
  P  P14  1  0.394779  0.004850  0.218473  1
  P  P15  1  0.427484  0.282510  0.782599  1
  P  P16  1  0.779599  0.591490  0.822549  1
  P  P17  1  0.843790  0.885452  0.386953  1
  P  P18  1  0.169557  0.219401  0.378318  1
  P  P19  1  0.522134  0.534383  0.414515  1
  P  P20  1  0.679792  0.260369  0.748463  1
  P  P21  1  0.717490  0.572516  0.282599  1
  P  P22  1  0.408510  0.220401  0.322549  1
  P  P23  1  0.739631  0.320208  0.248463  1
  O  O24  1  0.388567  0.987546  0.846235  1
  O  O25  1  0.241524  0.881481  0.776479  1
  O  O26  1  0.075538  0.636580  0.841252  1
  O  O27  1  0.651462  0.923546  0.878840  1
  O  O28  1  0.359560  0.568728  0.947861  1
  O  O29  1  0.436637  0.837230  0.706665  1
  O  O30  1  0.235341  0.808185  0.502553  1
  O  O31  1  0.084334  0.492209  0.691226  1
  O  O32  1  0.012454  0.611433  0.346235  1
  O  O33  1  0.118519  0.758476  0.276479  1
  O  O34  1  0.363420  0.924462  0.341252  1
  O  O35  1  0.101076  0.231846  0.715764  1
  O  O36  1  0.507065  0.552181  0.801178  1
  O  O37  1  0.778730  0.896267  0.711113  1
  O  O38  1  0.399559  0.400872  0.838193  1
  O  O39  1  0.802138  0.679143  0.920214  1
  O  O40  1  0.155517  0.996960  0.938859  1
  O  O41  1  0.640475  0.685795  0.651577  1
  O  O42  1  0.988044  0.983092  0.698678  1
  O  O43  1  0.288237  0.330654  0.637229  1
  O  O44  1  0.076454  0.348538  0.378840  1
  O  O45  1  0.431272  0.640440  0.447861  1
  O  O46  1  0.162770  0.563363  0.206665  1
  O  O47  1  0.191815  0.764659  0.002553  1
  O  O48  1  0.507791  0.915666  0.191226  1
  O  O49  1  0.811386  0.456779  0.955502  1
  O  O50  1  0.510259  0.140486  0.944019  1
  O  O51  1  0.521116  0.298380  0.692489  1
  O  O52  1  0.870887  0.747543  0.536682  1
  O  O53  1  0.206694  0.080429  0.535021  1
  O  O54  1  0.905181  0.551192  0.780163  1
  O  O55  1  0.768154  0.898924  0.215764  1
  O  O56  1  0.746194  0.252225  0.919945  1
  O  O57  1  0.447819  0.492935  0.301178  1
  O  O58  1  0.103733  0.221270  0.211113  1
  O  O59  1  0.599128  0.600441  0.338193  1
  O  O60  1  0.654790  0.395892  0.597901  1
  O  O61  1  0.320857  0.197862  0.420214  1
  O  O62  1  0.003040  0.844483  0.438859  1
  O  O63  1  0.314205  0.359525  0.151577  1
  O  O64  1  0.016908  0.011956  0.198678  1
  O  O65  1  0.669346  0.711763  0.137229  1
  O  O66  1  0.543221  0.188614  0.455502  1
  O  O67  1  0.986325  0.230246  0.901736  1
  O  O68  1  0.764729  0.128721  0.746039  1
  O  O69  1  0.859514  0.489741  0.444019  1
  O  O70  1  0.701620  0.478884  0.192490  1
  O  O71  1  0.252457  0.129113  0.036682  1
  O  O72  1  0.919571  0.793306  0.035021  1
  O  O73  1  0.448808  0.094819  0.280163  1
  O  O74  1  0.747775  0.253806  0.419945  1
  O  O75  1  0.604108  0.345210  0.097901  1
  O  O76  1  0.769754  0.013675  0.401736  1
  O  O77  1  0.871279  0.235271  0.246039  1
