# generated using pymatgen
data_LiV6O7F5
_symmetry_space_group_name_H-M   'P 1'
_cell_length_a   5.67593811
_cell_length_b   5.69250873
_cell_length_c   7.56164560
_cell_angle_alpha   108.62416713
_cell_angle_beta   71.13984153
_cell_angle_gamma   107.84565147
_symmetry_Int_Tables_number   1
_chemical_formula_structural   LiV6O7F5
_chemical_formula_sum   'Li1 V6 O7 F5'
_cell_volume   213.39481119
_cell_formula_units_Z   1
loop_
 _symmetry_equiv_pos_site_id
 _symmetry_equiv_pos_as_xyz
  1  'x, y, z'
loop_
 _atom_site_type_symbol
 _atom_site_label
 _atom_site_symmetry_multiplicity
 _atom_site_fract_x
 _atom_site_fract_y
 _atom_site_fract_z
 _atom_site_occupancy
  Li  Li0  1  0.568314  0.926553  0.427757  1
  V  V1  1  0.321346  0.662931  0.151125  1
  V  V2  1  0.625172  0.338695  0.309647  1
  V  V3  1  0.331546  0.654988  0.679797  1
  V  V4  1  0.010095  0.024467  0.516071  1
  V  V5  1  0.679563  0.306245  0.840832  1
  V  V6  1  0.029078  0.024157  0.002352  1
  O  O7  1  0.778186  0.222751  0.031573  1
  O  O8  1  0.423492  0.579317  0.370313  1
  O  O9  1  0.356805  0.025082  0.332284  1
  O  O10  1  0.034149  0.364479  0.670912  1
  O  O11  1  0.641817  0.948868  0.656521  1
  O  O12  1  0.228086  0.772277  0.965601  1
  O  O13  1  0.319514  0.311578  0.997659  1
  F  F14  1  0.949782  0.635830  0.336239  1
  F  F15  1  0.889363  0.108519  0.307395  1
  F  F16  1  0.111265  0.904237  0.704220  1
  F  F17  1  0.569627  0.415190  0.626254  1
  F  F18  1  0.709045  0.702053  0.997919  1
