# generated using pymatgen
data_LiFe2(BO3)2
_symmetry_space_group_name_H-M   'P 1'
_cell_length_a   5.27942657
_cell_length_b   9.05528920
_cell_length_c   11.42175443
_cell_angle_alpha   66.46521912
_cell_angle_beta   77.45117100
_cell_angle_gamma   89.63655265
_symmetry_Int_Tables_number   1
_chemical_formula_structural   LiFe2(BO3)2
_chemical_formula_sum   'Li4 Fe8 B8 O24'
_cell_volume   486.68036822
_cell_formula_units_Z   4
loop_
 _symmetry_equiv_pos_site_id
 _symmetry_equiv_pos_as_xyz
  1  'x, y, z'
loop_
 _atom_site_type_symbol
 _atom_site_label
 _atom_site_symmetry_multiplicity
 _atom_site_fract_x
 _atom_site_fract_y
 _atom_site_fract_z
 _atom_site_occupancy
  Li  Li0  1  0.731103  0.734830  0.873989  1
  Li  Li1  1  0.514022  0.489884  0.662360  1
  Li  Li2  1  0.734580  0.756084  0.159171  1
  Li  Li3  1  0.224346  0.249285  0.167001  1
  Fe  Fe4  1  0.992576  0.647260  0.379903  1
  Fe  Fe5  1  0.734214  0.070929  0.880744  1
  Fe  Fe6  1  0.504526  0.849170  0.631782  1
  Fe  Fe7  1  0.748943  0.438561  0.128079  1
  Fe  Fe8  1  0.225970  0.553152  0.886583  1
  Fe  Fe9  1  0.489179  0.149687  0.379776  1
  Fe  Fe10  1  0.036122  0.337677  0.630679  1
  Fe  Fe11  1  0.250128  0.941918  0.126261  1
  B  B12  1  0.984199  0.316813  0.373390  1
  B  B13  1  0.733769  0.400231  0.873202  1
  B  B14  1  0.536655  0.186488  0.631057  1
  B  B15  1  0.759009  0.103098  0.130281  1
  B  B16  1  0.483733  0.815504  0.377356  1
  B  B17  1  0.230845  0.896689  0.878848  1
  B  B18  1  0.003666  0.682138  0.630417  1
  B  B19  1  0.263659  0.602284  0.128625  1
  O  O20  1  0.967549  0.899311  0.887137  1
  O  O21  1  0.886558  0.283192  0.846612  1
  O  O22  1  0.837397  0.501527  0.919838  1
  O  O23  1  0.838875  0.786466  0.659868  1
  O  O24  1  0.918353  0.578165  0.579916  1
  O  O25  1  0.750139  0.151211  0.687245  1
  O  O26  1  0.749373  0.323422  0.334736  1
  O  O27  1  0.493829  0.414549  0.848347  1
  O  O28  1  0.372731  0.790784  0.829402  1
  O  O29  1  0.541385  0.919299  0.434523  1
  O  O30  1  0.660158  0.715002  0.352721  1
  O  O31  1  0.365780  0.985887  0.923018  1
  O  O32  1  0.655565  0.998930  0.084149  1
  O  O33  1  0.407872  0.318009  0.623017  1
  O  O34  1  0.459145  0.080542  0.578544  1
  O  O35  1  0.587199  0.198547  0.176807  1
  O  O36  1  0.529480  0.624096  0.110772  1
  O  O37  1  0.255085  0.668585  0.656059  1
  O  O38  1  0.249905  0.822698  0.339684  1
  O  O39  1  0.042965  0.422235  0.425694  1
  O  O40  1  0.154458  0.208672  0.356590  1
  O  O41  1  0.155412  0.488502  0.095321  1
  O  O42  1  0.097891  0.699608  0.176264  1
  O  O43  1  0.014393  0.109377  0.133110  1
