# generated using pymatgen
data_Li2V(OF)2
_symmetry_space_group_name_H-M   'P 1'
_cell_length_a   5.96437741
_cell_length_b   6.05735774
_cell_length_c   8.35736165
_cell_angle_alpha   89.31362136
_cell_angle_beta   90.00002969
_cell_angle_gamma   90.00004671
_symmetry_Int_Tables_number   1
_chemical_formula_structural   Li2V(OF)2
_chemical_formula_sum   'Li8 V4 O8 F8'
_cell_volume   301.91616902
_cell_formula_units_Z   4
loop_
 _symmetry_equiv_pos_site_id
 _symmetry_equiv_pos_as_xyz
  1  'x, y, z'
loop_
 _atom_site_type_symbol
 _atom_site_label
 _atom_site_symmetry_multiplicity
 _atom_site_fract_x
 _atom_site_fract_y
 _atom_site_fract_z
 _atom_site_occupancy
  Li  Li0  1  0.244307  0.252292  0.387767  1
  Li  Li1  1  0.244306  0.747709  0.112233  1
  Li  Li2  1  0.255787  0.500000  0.750000  1
  Li  Li3  1  0.503950  0.256726  0.990773  1
  Li  Li4  1  0.503950  0.743274  0.509227  1
  Li  Li5  1  0.739855  0.500000  0.250000  1
  Li  Li6  1  0.749168  0.246169  0.616648  1
  Li  Li7  1  0.749168  0.753831  0.883353  1
  V  V8  1  0.025509  0.257850  0.985380  1
  V  V9  1  0.025509  0.742150  0.514620  1
  V  V10  1  0.231769  1.000000  0.749999  1
  V  V11  1  0.741138  0.000002  0.250001  1
  O  O12  1  0.011427  0.233624  0.763079  1
  O  O13  1  0.011426  0.766375  0.736920  1
  O  O14  1  0.244953  0.016110  0.973001  1
  O  O15  1  0.244952  0.983889  0.526999  1
  O  O16  1  0.223616  0.463518  0.007546  1
  O  O17  1  0.223617  0.536481  0.492454  1
  O  O18  1  0.777488  0.974536  0.463972  1
  O  O19  1  0.777489  0.025464  0.036028  1
  F  F20  1  0.478105  0.242989  0.746234  1
  F  F21  1  0.478104  0.757010  0.753767  1
  F  F22  1  0.520265  0.239632  0.257746  1
  F  F23  1  0.520264  0.760370  0.242255  1
  F  F24  1  0.756403  0.529017  0.494805  1
  F  F25  1  0.756404  0.470983  0.005195  1
  F  F26  1  0.980535  0.246496  0.247290  1
  F  F27  1  0.980535  0.753505  0.252710  1
