# generated using pymatgen
data_LiV4OF11
_symmetry_space_group_name_H-M   'P 1'
_cell_length_a   5.28945615
_cell_length_b   5.50490850
_cell_length_c   17.42086521
_cell_angle_alpha   92.35822554
_cell_angle_beta   98.81557208
_cell_angle_gamma   61.19201540
_symmetry_Int_Tables_number   1
_chemical_formula_structural   LiV4OF11
_chemical_formula_sum   'Li2 V8 O2 F22'
_cell_volume   438.91737013
_cell_formula_units_Z   2
loop_
 _symmetry_equiv_pos_site_id
 _symmetry_equiv_pos_as_xyz
  1  'x, y, z'
loop_
 _atom_site_type_symbol
 _atom_site_label
 _atom_site_symmetry_multiplicity
 _atom_site_fract_x
 _atom_site_fract_y
 _atom_site_fract_z
 _atom_site_occupancy
  Li  Li0  1  0.048125  0.537589  0.679732  1
  Li  Li1  1  0.657912  0.585494  0.946033  1
  V  V2  1  0.246386  0.386354  0.877038  1
  V  V3  1  0.022862  0.967121  0.995731  1
  V  V4  1  0.499571  0.248095  0.250037  1
  V  V5  1  0.247595  0.877452  0.375029  1
  V  V6  1  0.507716  0.737950  0.747938  1
  V  V7  1  0.746778  0.156341  0.629128  1
  V  V8  1  0.749351  0.617902  0.125616  1
  V  V9  1  0.992567  0.506987  0.499367  1
  O  O10  1  0.246195  0.680145  0.935913  1
  O  O11  1  0.738483  0.445726  0.688674  1
  F  F12  1  0.181074  0.213290  0.963708  1
  F  F13  1  0.280895  0.062431  0.812610  1
  F  F14  1  0.228695  0.187602  0.438321  1
  F  F15  1  0.323132  0.034122  0.287330  1
  F  F16  1  0.292507  0.528155  0.777166  1
  F  F17  1  0.295360  0.356669  0.594661  1
  F  F18  1  0.181089  0.913118  0.661249  1
  F  F19  1  0.173033  0.412177  0.161966  1
  F  F20  1  0.172414  0.716064  0.462324  1
  F  F21  1  0.688877  0.179542  0.912215  1
  F  F22  1  0.273539  0.561062  0.312291  1
  F  F23  1  0.326109  0.830072  0.091374  1
  F  F24  1  0.813892  0.294501  0.533985  1
  F  F25  1  0.820959  0.089547  0.338022  1
  F  F26  1  0.794990  0.595230  0.848020  1
  F  F27  1  0.680057  0.458951  0.214667  1
  F  F28  1  0.674337  0.666590  0.410861  1
  F  F29  1  0.706545  0.945579  0.712340  1
  F  F30  1  0.783460  0.810971  0.567124  1
  F  F31  1  0.778896  0.313699  0.057875  1
  F  F32  1  0.727248  0.938374  0.187086  1
  F  F33  1  0.805071  0.769113  0.029707  1
