# generated using pymatgen
data_LiCo3P4O15
_symmetry_space_group_name_H-M   'P 1'
_cell_length_a   17.54807191
_cell_length_b   6.35089069
_cell_length_c   10.48186219
_cell_angle_alpha   89.93695379
_cell_angle_beta   89.97813381
_cell_angle_gamma   90.21955479
_symmetry_Int_Tables_number   1
_chemical_formula_structural   LiCo3P4O15
_chemical_formula_sum   'Li4 Co12 P16 O60'
_cell_volume   1168.15105261
_cell_formula_units_Z   4
loop_
 _symmetry_equiv_pos_site_id
 _symmetry_equiv_pos_as_xyz
  1  'x, y, z'
loop_
 _atom_site_type_symbol
 _atom_site_label
 _atom_site_symmetry_multiplicity
 _atom_site_fract_x
 _atom_site_fract_y
 _atom_site_fract_z
 _atom_site_occupancy
  Li  Li0  1  0.467521  0.687550  0.542181  1
  Li  Li1  1  0.502290  0.323573  0.031209  1
  Li  Li2  1  0.968738  0.688573  0.960704  1
  Li  Li3  1  0.997648  0.824072  0.529865  1
  Co  Co4  1  0.132961  0.579748  0.490701  1
  Co  Co5  1  0.158916  0.601751  0.012828  1
  Co  Co6  1  0.242237  0.319192  0.743427  1
  Co  Co7  1  0.258428  0.816502  0.242928  1
  Co  Co8  1  0.340617  0.106987  0.508098  1
  Co  Co9  1  0.366620  0.081455  0.990169  1
  Co  Co10  1  0.632497  0.597922  0.004961  1
  Co  Co11  1  0.658432  0.604556  0.486738  1
  Co  Co12  1  0.741914  0.319864  0.755719  1
  Co  Co13  1  0.759696  0.816851  0.256328  1
  Co  Co14  1  0.840709  0.109789  0.992292  1
  Co  Co15  1  0.866962  0.099261  0.505619  1
  P  P16  1  0.049188  0.647374  0.226461  1
  P  P17  1  0.070095  0.462477  0.761893  1
  P  P18  1  0.179607  0.085461  0.480176  1
  P  P19  1  0.207172  0.098715  0.004373  1
  P  P20  1  0.293898  0.600063  0.505112  1
  P  P21  1  0.320219  0.586291  0.980444  1
  P  P22  1  0.429522  0.969062  0.258711  1
  P  P23  1  0.448386  0.132694  0.727736  1
  P  P24  1  0.548449  0.641250  0.274586  1
  P  P25  1  0.570786  0.456714  0.735565  1
  P  P26  1  0.679884  0.089380  0.019773  1
  P  P27  1  0.707671  0.099949  0.495791  1
  P  P28  1  0.793502  0.601940  0.995031  1
  P  P29  1  0.820410  0.589476  0.520234  1
  P  P30  1  0.929286  0.963909  0.238640  1
  P  P31  1  0.948487  0.126811  0.772864  1
  O  O32  1  0.010200  0.502304  0.135846  1
  O  O33  1  0.011067  0.879011  0.199237  1
  O  O34  1  0.044176  0.615894  0.372200  1
  O  O35  1  0.059135  0.583725  0.635965  1
  O  O36  1  0.080957  0.604163  0.878519  1
  O  O37  1  0.132003  0.292890  0.752845  1
  O  O38  1  0.126785  0.897612  0.503686  1
  O  O39  1  0.134663  0.683476  0.189915  1
  O  O40  1  0.133686  0.287027  0.457566  1
  O  O41  1  0.157460  0.907053  0.979527  1
  O  O42  1  0.161770  0.298404  0.032550  1
  O  O43  1  0.236203  0.117068  0.596163  1
  O  O44  1  0.238170  0.048825  0.369686  1
  O  O45  1  0.231984  0.553985  0.610948  1
  O  O46  1  0.237562  0.634933  0.388051  1
  O  O47  1  0.263284  0.132048  0.887200  1
  O  O48  1  0.268124  0.052541  0.111535  1
  O  O49  1  0.262329  0.546905  0.868696  1
  O  O50  1  0.264311  0.619737  0.097250  1
  O  O51  1  0.344252  0.791914  0.533429  1
  O  O52  1  0.345135  0.414039  0.482346  1
  O  O53  1  0.366177  0.787947  0.956741  1
  O  O54  1  0.364592  0.182723  0.688372  1
  O  O55  1  0.372366  0.398980  0.003906  1
  O  O56  1  0.369801  0.791783  0.249193  1
  O  O57  1  0.411426  0.104668  0.375373  1
  O  O58  1  0.439633  0.093067  0.134032  1
  O  O59  1  0.454298  0.117954  0.874458  1
  O  O60  1  0.490787  0.356010  0.694523  1
  O  O61  1  0.481700  0.960766  0.649722  1
  O  O62  1  0.508400  0.508410  0.370902  1
  O  O63  1  0.511966  0.877461  0.287020  1
  O  O64  1  0.544898  0.581452  0.132200  1
  O  O65  1  0.557415  0.553209  0.867838  1
  O  O66  1  0.583760  0.611399  0.625947  1
  O  O67  1  0.632932  0.286168  0.739804  1
  O  O68  1  0.629490  0.894756  0.996960  1
  O  O69  1  0.633673  0.682880  0.310615  1
  O  O70  1  0.629874  0.283454  0.038913  1
  O  O71  1  0.657400  0.909270  0.519948  1
  O  O72  1  0.662860  0.300514  0.466736  1
  O  O73  1  0.736312  0.121456  0.904059  1
  O  O74  1  0.738100  0.053466  0.130621  1
  O  O75  1  0.731095  0.555593  0.889794  1
  O  O76  1  0.737649  0.634271  0.113036  1
  O  O77  1  0.763630  0.131171  0.613285  1
  O  O78  1  0.768961  0.052926  0.388774  1
  O  O79  1  0.763982  0.550697  0.633722  1
  O  O80  1  0.764051  0.624007  0.404610  1
  O  O81  1  0.843532  0.794475  0.966275  1
  O  O82  1  0.845475  0.416745  0.016035  1
  O  O83  1  0.870546  0.783953  0.539474  1
  O  O84  1  0.865161  0.181586  0.811982  1
  O  O85  1  0.870073  0.395946  0.495763  1
  O  O86  1  0.869469  0.784618  0.243461  1
  O  O87  1  0.908629  0.112373  0.129231  1
  O  O88  1  0.942012  0.062173  0.369980  1
  O  O89  1  0.953460  0.086393  0.628124  1
  O  O90  1  0.989734  0.355216  0.793745  1
  O  O91  1  0.982719  0.963319  0.856848  1
