# generated using pymatgen
data_Mn5Cr3O16
_symmetry_space_group_name_H-M   'P 1'
_cell_length_a   5.81890340
_cell_length_b   5.80857060
_cell_length_c   8.88540448
_cell_angle_alpha   89.99750634
_cell_angle_beta   90.42433479
_cell_angle_gamma   119.94096981
_symmetry_Int_Tables_number   1
_chemical_formula_structural   Mn5Cr3O16
_chemical_formula_sum   'Mn5 Cr3 O16'
_cell_volume   260.23188511
_cell_formula_units_Z   1
loop_
 _symmetry_equiv_pos_site_id
 _symmetry_equiv_pos_as_xyz
  1  'x, y, z'
loop_
 _atom_site_type_symbol
 _atom_site_label
 _atom_site_symmetry_multiplicity
 _atom_site_fract_x
 _atom_site_fract_y
 _atom_site_fract_z
 _atom_site_occupancy
  Mn  Mn0  1  0.336135  0.668090  0.483592  1
  Mn  Mn1  1  0.658341  0.829166  0.214312  1
  Mn  Mn2  1  0.666956  0.333476  0.982091  1
  Mn  Mn3  1  0.828350  0.662790  0.711509  1
  Mn  Mn4  1  0.828350  0.165580  0.711507  1
  Cr  Cr5  1  0.160858  0.832076  0.204015  1
  Cr  Cr6  1  0.160855  0.328826  0.204015  1
  Cr  Cr7  1  0.326240  0.163115  0.701214  1
  O  O8  1  0.171922  0.833993  0.605456  1
  O  O9  1  0.052905  0.526470  0.338234  1
  O  O10  1  0.340013  0.670038  0.097498  1
  O  O11  1  0.992923  0.996477  0.316660  1
  O  O12  1  0.993475  0.996721  0.816744  1
  O  O13  1  0.171910  0.337961  0.605458  1
  O  O14  1  0.476756  0.955666  0.341631  1
  O  O15  1  0.476744  0.521102  0.341650  1
  O  O16  1  0.345185  0.172617  0.108887  1
  O  O17  1  0.668392  0.834224  0.600599  1
  O  O18  1  0.522133  0.476698  0.839584  1
  O  O19  1  0.522149  0.045458  0.839594  1
  O  O20  1  0.673147  0.336606  0.599612  1
  O  O21  1  0.834562  0.662603  0.105098  1
  O  O22  1  0.957109  0.478537  0.841714  1
  O  O23  1  0.834590  0.171907  0.105048  1
