# generated using pymatgen
data_Sn(PO3)4
_symmetry_space_group_name_H-M   'P 1'
_cell_length_a   7.29144248
_cell_length_b   7.29015029
_cell_length_c   9.87335662
_cell_angle_alpha   79.94958880
_cell_angle_beta   71.70518923
_cell_angle_gamma   109.79694927
_symmetry_Int_Tables_number   1
_chemical_formula_structural   Sn(PO3)4
_chemical_formula_sum   'Sn2 P8 O24'
_cell_volume   445.07860483
_cell_formula_units_Z   2
loop_
 _symmetry_equiv_pos_site_id
 _symmetry_equiv_pos_as_xyz
  1  'x, y, z'
loop_
 _atom_site_type_symbol
 _atom_site_label
 _atom_site_symmetry_multiplicity
 _atom_site_fract_x
 _atom_site_fract_y
 _atom_site_fract_z
 _atom_site_occupancy
  Sn  Sn0  1  0.192938  0.942842  0.750092  1
  Sn  Sn1  1  0.807062  0.057158  0.249908  1
  P  P2  1  0.014288  0.308402  0.698626  1
  P  P3  1  0.268513  0.725740  0.479498  1
  P  P4  1  0.705314  0.748100  0.020425  1
  P  P5  1  0.492825  0.287187  0.198712  1
  P  P6  1  0.507175  0.712813  0.801288  1
  P  P7  1  0.294685  0.251900  0.979575  1
  P  P8  1  0.731487  0.274260  0.520502  1
  P  P9  1  0.985712  0.691598  0.301374  1
  O  O10  1  0.033029  0.648521  0.157720  1
  O  O11  1  0.104650  0.262324  0.092036  1
  O  O12  1  0.181887  0.710810  0.351928  1
  O  O13  1  0.145830  0.803233  0.592115  1
  O  O14  1  0.219986  0.494260  0.557559  1
  O  O15  1  0.056144  0.120624  0.682805  1
  O  O16  1  0.447924  0.222350  0.057759  1
  O  O17  1  0.305951  0.190780  0.342425  1
  O  O18  1  0.507478  0.839724  0.406353  1
  O  O19  1  0.562633  0.533993  0.148166  1
  O  O20  1  0.303691  0.738878  0.817079  1
  O  O21  1  0.746317  0.914134  0.093374  1
  O  O22  1  0.253683  0.085865  0.906626  1
  O  O23  1  0.696309  0.261122  0.182921  1
  O  O24  1  0.437367  0.466007  0.851834  1
  O  O25  1  0.492522  0.160276  0.593647  1
  O  O26  1  0.694049  0.809220  0.657575  1
  O  O27  1  0.552076  0.777650  0.942241  1
  O  O28  1  0.943856  0.879376  0.317195  1
  O  O29  1  0.780014  0.505740  0.442441  1
  O  O30  1  0.854170  0.196767  0.407885  1
  O  O31  1  0.818113  0.289190  0.648072  1
  O  O32  1  0.895350  0.737676  0.907964  1
  O  O33  1  0.966971  0.351479  0.842280  1
