# generated using pymatgen
data_SrLiLa3MnO8
_symmetry_space_group_name_H-M   'P 1'
_cell_length_a   5.43570744
_cell_length_b   6.90485662
_cell_length_c   10.88719669
_cell_angle_alpha   90.00000000
_cell_angle_beta   90.00000000
_cell_angle_gamma   113.17961036
_symmetry_Int_Tables_number   1
_chemical_formula_structural   SrLiLa3MnO8
_chemical_formula_sum   'Sr2 Li2 La6 Mn2 O16'
_cell_volume   375.64056109
_cell_formula_units_Z   2
loop_
 _symmetry_equiv_pos_site_id
 _symmetry_equiv_pos_as_xyz
  1  'x, y, z'
loop_
 _atom_site_type_symbol
 _atom_site_label
 _atom_site_symmetry_multiplicity
 _atom_site_fract_x
 _atom_site_fract_y
 _atom_site_fract_z
 _atom_site_occupancy
  Sr  Sr0  1  0.639964  0.279929  0.000000  1
  Sr  Sr1  1  0.360036  0.720071  0.500000  1
  Li  Li2  1  0.500000  0.000000  0.250000  1
  Li  Li3  1  0.500000  0.000000  0.750000  1
  La  La4  1  0.862302  0.724604  0.252367  1
  La  La5  1  0.365007  0.730014  0.000000  1
  La  La6  1  0.137698  0.275396  0.247633  1
  La  La7  1  0.634993  0.269986  0.500000  1
  La  La8  1  0.862302  0.724604  0.747633  1
  La  La9  1  0.137698  0.275396  0.752367  1
  Mn  Mn10  1  0.000567  0.001133  0.000000  1
  Mn  Mn11  1  0.999433  0.998867  0.500000  1
  O  O12  1  0.754245  0.997368  0.122357  1
  O  O13  1  0.841312  0.682624  0.000000  1
  O  O14  1  0.682877  0.365754  0.264141  1
  O  O15  1  0.756876  0.002632  0.377643  1
  O  O16  1  0.161875  0.323751  0.000000  1
  O  O17  1  0.243124  0.997368  0.122357  1
  O  O18  1  0.245755  0.002632  0.377643  1
  O  O19  1  0.317123  0.634246  0.235859  1
  O  O20  1  0.838125  0.676249  0.500000  1
  O  O21  1  0.756876  0.002632  0.622357  1
  O  O22  1  0.682877  0.365754  0.735860  1
  O  O23  1  0.158688  0.317376  0.500000  1
  O  O24  1  0.245755  0.002632  0.622357  1
  O  O25  1  0.754245  0.997368  0.877643  1
  O  O26  1  0.317123  0.634246  0.764140  1
  O  O27  1  0.243124  0.997368  0.877643  1
