# generated using pymatgen
data_Li3Mn5FeO12
_symmetry_space_group_name_H-M   'P 1'
_cell_length_a   5.98447743
_cell_length_b   5.98447743
_cell_length_c   13.14753353
_cell_angle_alpha   103.30396855
_cell_angle_beta   103.30396855
_cell_angle_gamma   92.24954638
_symmetry_Int_Tables_number   1
_chemical_formula_structural   Li3Mn5FeO12
_chemical_formula_sum   'Li6 Mn10 Fe2 O24'
_cell_volume   443.81263415
_cell_formula_units_Z   2
loop_
 _symmetry_equiv_pos_site_id
 _symmetry_equiv_pos_as_xyz
  1  'x, y, z'
loop_
 _atom_site_type_symbol
 _atom_site_label
 _atom_site_symmetry_multiplicity
 _atom_site_fract_x
 _atom_site_fract_y
 _atom_site_fract_z
 _atom_site_occupancy
  Li  Li0  1  0.800052  0.035859  0.082732  1
  Li  Li1  1  0.865276  0.634724  0.250000  1
  Li  Li2  1  0.464141  0.699948  0.417268  1
  Li  Li3  1  0.535859  0.300052  0.582732  1
  Li  Li4  1  0.134724  0.365276  0.750000  1
  Li  Li5  1  0.199948  0.964141  0.917268  1
  Mn  Mn6  1  0.000000  0.500000  0.000000  1
  Mn  Mn7  1  0.332102  0.333106  0.167066  1
  Mn  Mn8  1  0.335426  0.831369  0.168192  1
  Mn  Mn9  1  0.166894  0.167898  0.332934  1
  Mn  Mn10  1  0.668631  0.164574  0.331808  1
  Mn  Mn11  1  0.000000  0.500000  0.500000  1
  Mn  Mn12  1  0.331369  0.835426  0.668192  1
  Mn  Mn13  1  0.833106  0.832102  0.667066  1
  Mn  Mn14  1  0.667898  0.666894  0.832934  1
  Mn  Mn15  1  0.664574  0.168631  0.831808  1
  Fe  Fe16  1  0.500000  0.500000  0.000000  1
  Fe  Fe17  1  0.000000  0.000000  0.500000  1
  O  O18  1  0.237644  0.284406  0.009356  1
  O  O19  1  0.249602  0.730436  0.009045  1
  O  O20  1  0.543349  0.589118  0.161620  1
  O  O21  1  0.090476  0.598536  0.155571  1
  O  O22  1  0.573816  0.067838  0.176835  1
  O  O23  1  0.123817  0.074691  0.174357  1
  O  O24  1  0.425309  0.376183  0.325643  1
  O  O25  1  0.432162  0.926184  0.323165  1
  O  O26  1  0.910882  0.956651  0.338380  1
  O  O27  1  0.901464  0.409524  0.344429  1
  O  O28  1  0.215594  0.262356  0.490644  1
  O  O29  1  0.769564  0.250398  0.490955  1
  O  O30  1  0.784406  0.737644  0.509356  1
  O  O31  1  0.230436  0.749602  0.509045  1
  O  O32  1  0.098536  0.590476  0.655571  1
  O  O33  1  0.089118  0.043349  0.661620  1
  O  O34  1  0.574691  0.623817  0.674357  1
  O  O35  1  0.567838  0.073816  0.676835  1
  O  O36  1  0.876183  0.925309  0.825643  1
  O  O37  1  0.426184  0.932162  0.823165  1
  O  O38  1  0.456651  0.410882  0.838380  1
  O  O39  1  0.909524  0.401464  0.844429  1
  O  O40  1  0.762356  0.715594  0.990644  1
  O  O41  1  0.750398  0.269564  0.990955  1
