# generated using pymatgen
data_MgCr3Se2(SO6)4
_symmetry_space_group_name_H-M   'P 1'
_cell_length_a   8.43038999
_cell_length_b   8.93950243
_cell_length_c   8.41488457
_cell_angle_alpha   117.61376029
_cell_angle_beta   60.07218522
_cell_angle_gamma   117.68112517
_symmetry_Int_Tables_number   1
_chemical_formula_structural   MgCr3Se2(SO6)4
_chemical_formula_sum   'Mg1 Cr3 Se2 S4 O24'
_cell_volume   463.98736875
_cell_formula_units_Z   1
loop_
 _symmetry_equiv_pos_site_id
 _symmetry_equiv_pos_as_xyz
  1  'x, y, z'
loop_
 _atom_site_type_symbol
 _atom_site_label
 _atom_site_symmetry_multiplicity
 _atom_site_fract_x
 _atom_site_fract_y
 _atom_site_fract_z
 _atom_site_occupancy
  Mg  Mg0  1  0.138491  0.432747  0.149562  1
  Cr  Cr1  1  0.353457  0.071272  0.360160  1
  Cr  Cr2  1  0.651463  0.935553  0.644132  1
  Cr  Cr3  1  0.846011  0.545558  0.842922  1
  Se  Se4  1  0.537211  0.745077  0.254143  1
  Se  Se5  1  0.252644  0.747117  0.955925  1
  S  S6  1  0.037628  0.251375  0.470654  1
  S  S7  1  0.739946  0.251011  0.038629  1
  S  S8  1  0.467730  0.247483  0.743961  1
  S  S9  1  0.960119  0.750123  0.537304  1
  O  O10  1  0.294235  0.944515  0.119671  1
  O  O11  1  0.113958  0.920059  0.517835  1
  O  O12  1  0.011399  0.290226  0.337053  1
  O  O13  1  0.016099  0.394900  0.662248  1
  O  O14  1  0.021783  0.699227  0.986422  1
  O  O15  1  0.329526  0.590760  0.298314  1
  O  O16  1  0.525884  0.943203  0.298861  1
  O  O17  1  0.232631  0.239559  0.397058  1
  O  O18  1  0.682128  0.698687  0.018751  1
  O  O19  1  0.391678  0.768189  0.736452  1
  O  O20  1  0.653241  0.770977  0.382084  1
  O  O21  1  0.292796  0.594612  0.975625  1
  O  O22  1  0.710939  0.392545  0.012992  1
  O  O23  1  0.389233  0.232456  0.612463  1
  O  O24  1  0.604322  0.238426  0.233449  1
  O  O25  1  0.336477  0.290518  0.942245  1
  O  O26  1  0.769783  0.779788  0.633198  1
  O  O27  1  0.500817  0.078529  0.688874  1
  O  O28  1  0.661023  0.389819  0.709620  1
  O  O29  1  0.936817  0.295522  0.019628  1
  O  O30  1  0.974349  0.611345  0.352803  1
  O  O31  1  0.980952  0.697698  0.670926  1
  O  O32  1  0.896491  0.081140  0.501769  1
  O  O33  1  0.688741  0.079984  0.894266  1
