# generated using pymatgen
data_LiTiNiO4
_symmetry_space_group_name_H-M   'P 1'
_cell_length_a   5.97050804
_cell_length_b   5.82446864
_cell_length_c   5.82446833
_cell_angle_alpha   61.91750636
_cell_angle_beta   59.16705666
_cell_angle_gamma   59.16705850
_symmetry_Int_Tables_number   1
_chemical_formula_structural   LiTiNiO4
_chemical_formula_sum   'Li2 Ti2 Ni2 O8'
_cell_volume   143.26986876
_cell_formula_units_Z   2
loop_
 _symmetry_equiv_pos_site_id
 _symmetry_equiv_pos_as_xyz
  1  'x, y, z'
loop_
 _atom_site_type_symbol
 _atom_site_label
 _atom_site_symmetry_multiplicity
 _atom_site_fract_x
 _atom_site_fract_y
 _atom_site_fract_z
 _atom_site_occupancy
  Li  Li0  1  0.121928  0.128072  0.128072  1
  Li  Li1  1  0.878072  0.871928  0.871928  1
  Ti  Ti2  1  0.500000  0.000000  0.500000  1
  Ti  Ti3  1  0.500000  0.500000  0.000000  1
  Ni  Ni4  1  0.000000  0.500000  0.500000  1
  Ni  Ni5  1  0.500000  0.500000  0.500000  1
  O  O6  1  0.263895  0.263084  0.263084  1
  O  O7  1  0.261577  0.260031  0.716815  1
  O  O8  1  0.261577  0.716815  0.260031  1
  O  O9  1  0.709937  0.263084  0.263084  1
  O  O10  1  0.290063  0.736916  0.736916  1
  O  O11  1  0.738423  0.739969  0.283185  1
  O  O12  1  0.738423  0.283185  0.739969  1
  O  O13  1  0.736105  0.736916  0.736916  1
