# generated using pymatgen
data_Li3Mn2V3O12
_symmetry_space_group_name_H-M   'P 1'
_cell_length_a   8.82642103
_cell_length_b   12.66464595
_cell_length_c   9.19689429
_cell_angle_alpha   90.00000000
_cell_angle_beta   90.00000000
_cell_angle_gamma   92.76135828
_symmetry_Int_Tables_number   1
_chemical_formula_structural   Li3Mn2V3O12
_chemical_formula_sum   'Li12 Mn8 V12 O48'
_cell_volume   1026.86728128
_cell_formula_units_Z   4
loop_
 _symmetry_equiv_pos_site_id
 _symmetry_equiv_pos_as_xyz
  1  'x, y, z'
loop_
 _atom_site_type_symbol
 _atom_site_label
 _atom_site_symmetry_multiplicity
 _atom_site_fract_x
 _atom_site_fract_y
 _atom_site_fract_z
 _atom_site_occupancy
  Li  Li0  1  0.074212  0.696725  0.089539  1
  Li  Li1  1  0.059035  0.342255  0.512447  1
  Li  Li2  1  0.178414  0.180355  0.776405  1
  Li  Li3  1  0.321586  0.319645  0.276405  1
  Li  Li4  1  0.425788  0.803275  0.589539  1
  Li  Li5  1  0.440965  0.157745  0.012447  1
  Li  Li6  1  0.559035  0.842255  0.987553  1
  Li  Li7  1  0.574212  0.196725  0.410461  1
  Li  Li8  1  0.678414  0.680355  0.723595  1
  Li  Li9  1  0.821586  0.819645  0.223595  1
  Li  Li10  1  0.940965  0.657745  0.487553  1
  Li  Li11  1  0.925788  0.303275  0.910461  1
  Mn  Mn12  1  0.248405  0.893918  0.027760  1
  Mn  Mn13  1  0.251595  0.606082  0.527760  1
  Mn  Mn14  1  0.253448  0.382163  0.966748  1
  Mn  Mn15  1  0.246552  0.117837  0.466748  1
  Mn  Mn16  1  0.753448  0.882163  0.533252  1
  Mn  Mn17  1  0.746552  0.617837  0.033252  1
  Mn  Mn18  1  0.748405  0.393918  0.472240  1
  Mn  Mn19  1  0.751595  0.106082  0.972240  1
  V  V20  1  0.043891  0.489308  0.249862  1
  V  V21  1  0.118570  0.857286  0.377925  1
  V  V22  1  0.112227  0.147760  0.114425  1
  V  V23  1  0.381430  0.642714  0.877925  1
  V  V24  1  0.387773  0.352240  0.614425  1
  V  V25  1  0.456109  0.010692  0.749862  1
  V  V26  1  0.543891  0.989308  0.250138  1
  V  V27  1  0.612227  0.647760  0.385575  1
  V  V28  1  0.618570  0.357286  0.122075  1
  V  V29  1  0.887773  0.852240  0.885575  1
  V  V30  1  0.881430  0.142714  0.622075  1
  V  V31  1  0.956109  0.510692  0.750138  1
  O  O32  1  0.051502  0.441254  0.876064  1
  O  O33  1  0.071281  0.904196  0.896249  1
  O  O34  1  0.068622  0.606423  0.654533  1
  O  O35  1  0.065022  0.194186  0.582083  1
  O  O36  1  0.107775  0.590061  0.369622  1
  O  O37  1  0.122760  0.840273  0.185059  1
  O  O38  1  0.138314  0.990116  0.418974  1
  O  O39  1  0.124244  0.253644  0.987018  1
  O  O40  1  0.172030  0.190804  0.287662  1
  O  O41  1  0.195910  0.426920  0.170047  1
  O  O42  1  0.247444  0.785425  0.468935  1
  O  O43  1  0.252556  0.714575  0.968935  1
  O  O44  1  0.246978  0.064281  0.052218  1
  O  O45  1  0.253022  0.435719  0.552218  1
  O  O46  1  0.304090  0.073080  0.670047  1
  O  O47  1  0.327970  0.309196  0.787662  1
  O  O48  1  0.361686  0.509884  0.918974  1
  O  O49  1  0.375756  0.246356  0.487018  1
  O  O50  1  0.377240  0.659727  0.685059  1
  O  O51  1  0.392225  0.909939  0.869622  1
  O  O52  1  0.431378  0.893577  0.154533  1
  O  O53  1  0.428719  0.595804  0.396249  1
  O  O54  1  0.434978  0.305814  0.082083  1
  O  O55  1  0.448498  0.058746  0.376064  1
  O  O56  1  0.551502  0.941254  0.623936  1
  O  O57  1  0.565022  0.694186  0.917917  1
  O  O58  1  0.571281  0.404196  0.603751  1
  O  O59  1  0.568622  0.106423  0.845467  1
  O  O60  1  0.607775  0.090061  0.130378  1
  O  O61  1  0.622760  0.340273  0.314941  1
  O  O62  1  0.624244  0.753644  0.512982  1
  O  O63  1  0.638314  0.490116  0.081026  1
  O  O64  1  0.672030  0.690804  0.212338  1
  O  O65  1  0.695910  0.926920  0.329953  1
  O  O66  1  0.746978  0.564281  0.447782  1
  O  O67  1  0.753022  0.935719  0.947782  1
  O  O68  1  0.747444  0.285425  0.031065  1
  O  O69  1  0.752556  0.214575  0.531065  1
  O  O70  1  0.804090  0.573080  0.829953  1
  O  O71  1  0.827970  0.809196  0.712338  1
  O  O72  1  0.875756  0.746356  0.012982  1
  O  O73  1  0.861686  0.009884  0.581026  1
  O  O74  1  0.877240  0.159727  0.814941  1
  O  O75  1  0.892225  0.409939  0.630378  1
  O  O76  1  0.934978  0.805814  0.417917  1
  O  O77  1  0.931378  0.393577  0.345467  1
  O  O78  1  0.928719  0.095804  0.103751  1
  O  O79  1  0.948498  0.558746  0.123936  1
