# generated using pymatgen
data_LiV6O7F5
_symmetry_space_group_name_H-M   'P 1'
_cell_length_a   6.59720231
_cell_length_b   7.01101789
_cell_length_c   9.26447788
_cell_angle_alpha   90.51338970
_cell_angle_beta   90.00000396
_cell_angle_gamma   89.99999752
_symmetry_Int_Tables_number   1
_chemical_formula_structural   LiV6O7F5
_chemical_formula_sum   'Li2 V12 O14 F10'
_cell_volume   428.49365154
_cell_formula_units_Z   2
loop_
 _symmetry_equiv_pos_site_id
 _symmetry_equiv_pos_as_xyz
  1  'x, y, z'
loop_
 _atom_site_type_symbol
 _atom_site_label
 _atom_site_symmetry_multiplicity
 _atom_site_fract_x
 _atom_site_fract_y
 _atom_site_fract_z
 _atom_site_occupancy
  Li  Li0  1  0.739849  0.240397  0.594907  1
  Li  Li1  1  0.739850  0.759604  0.071762  1
  V  V2  1  0.969792  0.000000  0.333333  1
  V  V3  1  0.506784  0.000000  0.833333  1
  V  V4  1  0.497660  0.045586  0.161899  1
  V  V5  1  0.013444  0.995496  0.661261  1
  V  V6  1  0.494058  0.480047  0.003511  1
  V  V7  1  0.494058  0.519953  0.663155  1
  V  V8  1  0.479680  0.500000  0.333333  1
  V  V9  1  0.015341  0.474719  0.505951  1
  V  V10  1  0.000991  0.500000  0.833333  1
  V  V11  1  0.497660  0.954415  0.504767  1
  V  V12  1  0.015341  0.525281  0.160715  1
  V  V13  1  0.013444  0.004504  0.005406  1
  O  O14  1  0.708402  0.005193  0.997920  1
  O  O15  1  0.676902  0.000000  0.333333  1
  O  O16  1  0.308765  0.011812  0.998160  1
  O  O17  1  0.802648  0.487415  0.665903  1
  O  O18  1  0.802648  0.512585  0.000764  1
  O  O19  1  0.499048  0.316578  0.170741  1
  O  O20  1  0.992182  0.187668  0.501203  1
  O  O21  1  0.499048  0.683422  0.495926  1
  O  O22  1  0.204390  0.498957  0.674017  1
  O  O23  1  0.204390  0.501043  0.992650  1
  O  O24  1  0.189048  0.500000  0.333333  1
  O  O25  1  0.708402  0.994807  0.668746  1
  O  O26  1  0.308765  0.988188  0.668507  1
  O  O27  1  0.992182  0.812332  0.165464  1
  F  F28  1  0.998301  0.206742  0.170292  1
  F  F29  1  0.284837  1.000000  0.333333  1
  F  F30  1  0.797453  0.500000  0.333333  1
  F  F31  1  0.497571  0.299106  0.501979  1
  F  F32  1  0.508444  0.302540  0.825581  1
  F  F33  1  0.998301  0.793258  0.496374  1
  F  F34  1  0.004693  0.194712  0.832468  1
  F  F35  1  0.508444  0.697460  0.841086  1
  F  F36  1  0.497571  0.700894  0.164688  1
  F  F37  1  0.004693  0.805288  0.834199  1
