# generated using pymatgen
data_Mn(SO4)2
_symmetry_space_group_name_H-M   'P 1'
_cell_length_a   8.82086574
_cell_length_b   8.82086508
_cell_length_c   8.82086614
_cell_angle_alpha   55.46644119
_cell_angle_beta   55.46644284
_cell_angle_gamma   55.46644095
_symmetry_Int_Tables_number   1
_chemical_formula_structural   Mn(SO4)2
_chemical_formula_sum   'Mn3 S6 O24'
_cell_volume   434.21776418
_cell_formula_units_Z   3
loop_
 _symmetry_equiv_pos_site_id
 _symmetry_equiv_pos_as_xyz
  1  'x, y, z'
loop_
 _atom_site_type_symbol
 _atom_site_label
 _atom_site_symmetry_multiplicity
 _atom_site_fract_x
 _atom_site_fract_y
 _atom_site_fract_z
 _atom_site_occupancy
  Mn  Mn0  1  0.152202  0.152202  0.152202  1
  Mn  Mn1  1  0.646266  0.646266  0.646266  1
  Mn  Mn2  1  0.846641  0.846641  0.846641  1
  S  S3  1  0.047258  0.753930  0.453943  1
  S  S4  1  0.453943  0.047258  0.753930  1
  S  S5  1  0.753930  0.453943  0.047258  1
  S  S6  1  0.250976  0.539517  0.961268  1
  S  S7  1  0.539517  0.961268  0.250976  1
  S  S8  1  0.961268  0.250976  0.539517  1
  O  O9  1  0.111223  0.291918  0.513830  1
  O  O10  1  0.291918  0.513830  0.111223  1
  O  O11  1  0.997095  0.970857  0.330062  1
  O  O12  1  0.513830  0.111223  0.291918  1
  O  O13  1  0.024131  0.716523  0.655308  1
  O  O14  1  0.243891  0.633019  0.368844  1
  O  O15  1  0.368844  0.243891  0.633019  1
  O  O16  1  0.330062  0.997095  0.970857  1
  O  O17  1  0.633019  0.368844  0.243891  1
  O  O18  1  0.041751  0.677861  0.980296  1
  O  O19  1  0.284385  0.346164  0.967817  1
  O  O20  1  0.346164  0.967817  0.284385  1
  O  O21  1  0.655308  0.024131  0.716523  1
  O  O22  1  0.716523  0.655308  0.024131  1
  O  O23  1  0.970857  0.330062  0.997095  1
  O  O24  1  0.382383  0.622495  0.754514  1
  O  O25  1  0.677861  0.980296  0.041751  1
  O  O26  1  0.622495  0.754514  0.382383  1
  O  O27  1  0.754514  0.382383  0.622495  1
  O  O28  1  0.967817  0.284385  0.346164  1
  O  O29  1  0.479901  0.894533  0.704157  1
  O  O30  1  0.980296  0.041751  0.677861  1
  O  O31  1  0.704157  0.479901  0.894533  1
  O  O32  1  0.894533  0.704157  0.479901  1
