# generated using pymatgen
data_Li7NbS6
_symmetry_space_group_name_H-M   'P 1'
_cell_length_a   7.19131178
_cell_length_b   7.25625369
_cell_length_c   10.30769948
_cell_angle_alpha   90.00000000
_cell_angle_beta   91.46039712
_cell_angle_gamma   90.00000000
_symmetry_Int_Tables_number   1
_chemical_formula_structural   Li7NbS6
_chemical_formula_sum   'Li14 Nb2 S12'
_cell_volume   537.70148205
_cell_formula_units_Z   2
loop_
 _symmetry_equiv_pos_site_id
 _symmetry_equiv_pos_as_xyz
  1  'x, y, z'
loop_
 _atom_site_type_symbol
 _atom_site_label
 _atom_site_symmetry_multiplicity
 _atom_site_fract_x
 _atom_site_fract_y
 _atom_site_fract_z
 _atom_site_occupancy
  Li  Li0  1  0.080187  0.408064  0.454776  1
  Li  Li1  1  0.114071  0.907233  0.299155  1
  Li  Li2  1  0.191153  0.915702  0.685633  1
  Li  Li3  1  0.288522  0.517970  0.766757  1
  Li  Li4  1  0.323678  0.022614  0.982112  1
  Li  Li5  1  0.302359  0.367779  0.168124  1
  Li  Li6  1  0.392676  0.733906  0.518731  1
  Li  Li7  1  0.580187  0.591936  0.954775  1
  Li  Li8  1  0.614071  0.092767  0.799155  1
  Li  Li9  1  0.691153  0.084298  0.185633  1
  Li  Li10  1  0.788522  0.482030  0.266757  1
  Li  Li11  1  0.823678  0.977386  0.482112  1
  Li  Li12  1  0.802359  0.632221  0.668124  1
  Li  Li13  1  0.892676  0.266094  0.018731  1
  Nb  Nb14  1  0.004007  0.753599  0.995468  1
  Nb  Nb15  1  0.504007  0.246401  0.495468  1
  S  S16  1  0.000638  0.230604  0.248485  1
  S  S17  1  0.041367  0.736893  0.506541  1
  S  S18  1  0.262255  0.244150  0.634646  1
  S  S19  1  0.277975  0.739385  0.110399  1
  S  S20  1  0.507247  0.982763  0.373173  1
  S  S21  1  0.477714  0.497062  0.361884  1
  S  S22  1  0.500638  0.769396  0.748485  1
  S  S23  1  0.541367  0.263107  0.006541  1
  S  S24  1  0.762255  0.755850  0.134646  1
  S  S25  1  0.777975  0.260615  0.610399  1
  S  S26  1  0.007247  0.017237  0.873173  1
  S  S27  1  0.977714  0.502938  0.861884  1
