# generated using pymatgen
data_LiCrPHO5
_symmetry_space_group_name_H-M   'P 1'
_cell_length_a   5.40001365
_cell_length_b   7.31601118
_cell_length_c   5.14799993
_cell_angle_alpha   108.86431664
_cell_angle_beta   97.86763538
_cell_angle_gamma   106.52630493
_symmetry_Int_Tables_number   1
_chemical_formula_structural   LiCrPHO5
_chemical_formula_sum   'Li2 Cr2 P2 H2 O10'
_cell_volume   178.53768764
_cell_formula_units_Z   2
loop_
 _symmetry_equiv_pos_site_id
 _symmetry_equiv_pos_as_xyz
  1  'x, y, z'
loop_
 _atom_site_type_symbol
 _atom_site_label
 _atom_site_symmetry_multiplicity
 _atom_site_fract_x
 _atom_site_fract_y
 _atom_site_fract_z
 _atom_site_occupancy
  Li  Li0  1  0.396955  0.822168  0.745794  1
  Li  Li1  1  0.603045  0.177832  0.254206  1
  Cr  Cr2  1  0.000000  0.500000  0.000000  1
  Cr  Cr3  1  0.000000  0.000000  0.000000  1
  P  P4  1  0.360020  0.233792  0.676929  1
  P  P5  1  0.639980  0.766208  0.323071  1
  H  H6  1  0.062337  0.341855  0.355505  1
  H  H7  1  0.937663  0.658145  0.644495  1
  O  O8  1  0.050131  0.724797  0.841825  1
  O  O9  1  0.205861  0.385137  0.726635  1
  O  O10  1  0.343236  0.659200  0.307518  1
  O  O11  1  0.249226  0.071521  0.369041  1
  O  O12  1  0.338746  0.120492  0.887501  1
  O  O13  1  0.661254  0.879508  0.112499  1
  O  O14  1  0.750774  0.928479  0.630959  1
  O  O15  1  0.656764  0.340800  0.692482  1
  O  O16  1  0.794139  0.614863  0.273365  1
  O  O17  1  0.949869  0.275203  0.158175  1
