# generated using pymatgen
data_V4O5F7
_symmetry_space_group_name_H-M   'P 1'
_cell_length_a   5.28489977
_cell_length_b   5.34791512
_cell_length_c   9.04865363
_cell_angle_alpha   74.34584862
_cell_angle_beta   90.33468365
_cell_angle_gamma   60.45153478
_symmetry_Int_Tables_number   1
_chemical_formula_structural   V4O5F7
_chemical_formula_sum   'V4 O5 F7'
_cell_volume   211.26311192
_cell_formula_units_Z   1
loop_
 _symmetry_equiv_pos_site_id
 _symmetry_equiv_pos_as_xyz
  1  'x, y, z'
loop_
 _atom_site_type_symbol
 _atom_site_label
 _atom_site_symmetry_multiplicity
 _atom_site_fract_x
 _atom_site_fract_y
 _atom_site_fract_z
 _atom_site_occupancy
  V  V0  1  0.782470  0.473698  0.261234  1
  V  V1  1  0.487721  0.018917  0.511621  1
  V  V2  1  0.270287  0.519539  0.744415  1
  V  V3  1  0.045947  0.995946  0.015702  1
  O  O4  1  0.947947  0.244581  0.118171  1
  O  O5  1  0.403196  0.756322  0.085925  1
  O  O6  1  0.402986  0.743795  0.662679  1
  O  O7  1  0.442089  0.241426  0.623251  1
  O  O8  1  0.081868  0.255794  0.402807  1
  F  F9  1  0.913575  0.738314  0.583843  1
  F  F10  1  0.909296  0.760114  0.156845  1
  F  F11  1  0.544218  0.753862  0.375533  1
  F  F12  1  0.583691  0.246487  0.329894  1
  F  F13  1  0.576666  0.244093  0.917674  1
  F  F14  1  0.032551  0.757532  0.877141  1
  F  F15  1  0.075494  0.249582  0.833265  1
