# generated using pymatgen
data_Li2CoSiO4
_symmetry_space_group_name_H-M   'P 1'
_cell_length_a   5.00600265
_cell_length_b   5.39315346
_cell_length_c   6.30660590
_cell_angle_alpha   90.00396910
_cell_angle_beta   89.82391418
_cell_angle_gamma   89.86898025
_symmetry_Int_Tables_number   1
_chemical_formula_structural   Li2CoSiO4
_chemical_formula_sum   'Li4 Co2 Si2 O8'
_cell_volume   170.26538224
_cell_formula_units_Z   2
loop_
 _symmetry_equiv_pos_site_id
 _symmetry_equiv_pos_as_xyz
  1  'x, y, z'
loop_
 _atom_site_type_symbol
 _atom_site_label
 _atom_site_symmetry_multiplicity
 _atom_site_fract_x
 _atom_site_fract_y
 _atom_site_fract_z
 _atom_site_occupancy
  Li  Li0  1  0.505825  0.171546  0.000759  1
  Li  Li1  1  0.503549  0.650719  0.251742  1
  Li  Li2  1  0.002968  0.819363  0.500885  1
  Li  Li3  1  0.003810  0.338850  0.752299  1
  Co  Co4  1  0.505640  0.164931  0.507941  1
  Co  Co5  1  0.007004  0.825947  0.007381  1
  Si  Si6  1  0.011007  0.322591  0.252526  1
  Si  Si7  1  0.511092  0.668556  0.753023  1
  O  O8  1  0.903933  0.179857  0.036089  1
  O  O9  1  0.904224  0.612837  0.251292  1
  O  O10  1  0.340949  0.315272  0.253595  1
  O  O11  1  0.903796  0.179825  0.469150  1
  O  O12  1  0.402980  0.811470  0.536766  1
  O  O13  1  0.404380  0.378764  0.752202  1
  O  O14  1  0.840999  0.675214  0.753855  1
  O  O15  1  0.404870  0.811875  0.969903  1
