# generated using pymatgen
data_Mn3(OF3)2
_symmetry_space_group_name_H-M   'P 1'
_cell_length_a   10.22102904
_cell_length_b   4.71852584
_cell_length_c   5.48237559
_cell_angle_alpha   90.00000000
_cell_angle_beta   95.34643457
_cell_angle_gamma   90.00000000
_symmetry_Int_Tables_number   1
_chemical_formula_structural   Mn3(OF3)2
_chemical_formula_sum   'Mn6 O4 F12'
_cell_volume   263.25475832
_cell_formula_units_Z   2
loop_
 _symmetry_equiv_pos_site_id
 _symmetry_equiv_pos_as_xyz
  1  'x, y, z'
loop_
 _atom_site_type_symbol
 _atom_site_label
 _atom_site_symmetry_multiplicity
 _atom_site_fract_x
 _atom_site_fract_y
 _atom_site_fract_z
 _atom_site_occupancy
  Mn  Mn0  1  0.000000  0.500000  0.500000  1
  Mn  Mn1  1  0.245335  0.977624  0.737823  1
  Mn  Mn2  1  0.254665  0.477624  0.262177  1
  Mn  Mn3  1  0.500000  0.000000  0.500000  1
  Mn  Mn4  1  0.745335  0.522376  0.737823  1
  Mn  Mn5  1  0.754665  0.022376  0.262177  1
  O  O6  1  0.174740  0.682799  0.515245  1
  O  O7  1  0.325259  0.182799  0.484755  1
  O  O8  1  0.674740  0.817201  0.515245  1
  O  O9  1  0.825260  0.317201  0.484755  1
  F  F10  1  0.085159  0.169280  0.702412  1
  F  F11  1  0.084808  0.313036  0.221204  1
  F  F12  1  0.189907  0.762296  0.012610  1
  F  F13  1  0.310093  0.262296  0.987390  1
  F  F14  1  0.415192  0.813036  0.778796  1
  F  F15  1  0.414841  0.669280  0.297588  1
  F  F16  1  0.585159  0.330720  0.702412  1
  F  F17  1  0.584808  0.186964  0.221204  1
  F  F18  1  0.689907  0.737704  0.012610  1
  F  F19  1  0.810093  0.237704  0.987390  1
  F  F20  1  0.915192  0.686964  0.778796  1
  F  F21  1  0.914841  0.830720  0.297588  1
