# generated using pymatgen
data_Ba6Ti7(Sb3O14)3
_symmetry_space_group_name_H-M   'P 1'
_cell_length_a   9.13843008
_cell_length_b   9.15361259
_cell_length_c   12.12420779
_cell_angle_alpha   90.17176837
_cell_angle_beta   89.91385580
_cell_angle_gamma   120.05510646
_symmetry_Int_Tables_number   1
_chemical_formula_structural   Ba6Ti7(Sb3O14)3
_chemical_formula_sum   'Ba6 Ti7 Sb9 O42'
_cell_volume   877.81853101
_cell_formula_units_Z   1
loop_
 _symmetry_equiv_pos_site_id
 _symmetry_equiv_pos_as_xyz
  1  'x, y, z'
loop_
 _atom_site_type_symbol
 _atom_site_label
 _atom_site_symmetry_multiplicity
 _atom_site_fract_x
 _atom_site_fract_y
 _atom_site_fract_z
 _atom_site_occupancy
  Ba  Ba0  1  0.999998  0.593710  0.244874  1
  Ba  Ba1  1  1.000000  0.411682  0.750777  1
  Ba  Ba2  1  0.408733  0.407552  0.244280  1
  Ba  Ba3  1  0.598838  0.595136  0.750478  1
  Ba  Ba4  1  0.401166  0.996296  0.750478  1
  Ba  Ba5  1  0.591263  0.998819  0.244283  1
  Ti  Ti6  1  0.999996  0.750249  0.911643  1
  Ti  Ti7  1  0.000000  0.751761  0.605307  1
  Ti  Ti8  1  0.999998  0.250759  0.102525  1
  Ti  Ti9  1  0.251193  0.251587  0.603326  1
  Ti  Ti10  1  0.244068  0.991670  0.096989  1
  Ti  Ti11  1  0.755927  0.747600  0.096989  1
  Ti  Ti12  1  0.748809  0.000394  0.603321  1
  Sb  Sb13  1  0.000002  0.242419  0.413442  1
  Sb  Sb14  1  0.333919  0.665947  0.999915  1
  Sb  Sb15  1  0.332868  0.667007  0.500170  1
  Sb  Sb16  1  0.241752  0.239035  0.914242  1
  Sb  Sb17  1  0.241335  0.000153  0.411096  1
  Sb  Sb18  1  0.758670  0.758820  0.411095  1
  Sb  Sb19  1  0.666078  0.332025  0.999919  1
  Sb  Sb20  1  0.667135  0.334140  0.500172  1
  Sb  Sb21  1  0.758250  0.997283  0.914237  1
  O  O22  1  0.999998  0.796470  0.070921  1
  O  O23  1  0.000002  0.797213  0.421818  1
  O  O24  1  0.999999  0.782692  0.752433  1
  O  O25  1  0.170257  0.688689  0.601500  1
  O  O26  1  0.169353  0.687998  0.900433  1
  O  O27  1  0.000007  0.214439  0.250074  1
  O  O28  1  0.314373  0.829072  0.101853  1
  O  O29  1  0.314773  0.828084  0.394250  1
  O  O30  1  0.000003  0.200116  0.576971  1
  O  O31  1  0.000000  0.203407  0.923415  1
  O  O32  1  0.169793  0.482814  0.099656  1
  O  O33  1  0.171438  0.487151  0.394169  1
  O  O34  1  0.314129  0.484584  0.894020  1
  O  O35  1  0.312303  0.481725  0.599408  1
  O  O36  1  0.199650  0.203173  0.076463  1
  O  O37  1  0.203524  0.204035  0.423651  1
  O  O38  1  0.518611  0.830875  0.599797  1
  O  O39  1  0.511074  0.828897  0.892773  1
  O  O40  1  0.215734  0.215324  0.750954  1
  O  O41  1  0.512675  0.684583  0.394118  1
  O  O42  1  0.520942  0.687611  0.095626  1
  O  O43  1  0.198537  0.000276  0.575562  1
  O  O44  1  0.203650  0.002815  0.925766  1
  O  O45  1  0.215198  0.001160  0.247399  1
  O  O46  1  0.481388  0.312264  0.599796  1
  O  O47  1  0.488929  0.317832  0.892779  1
  O  O48  1  0.784803  0.785969  0.247397  1
  O  O49  1  0.479048  0.166669  0.095626  1
  O  O50  1  0.487329  0.171910  0.394117  1
  O  O51  1  0.801469  0.801745  0.575561  1
  O  O52  1  0.796346  0.799159  0.925765  1
  O  O53  1  0.685628  0.514698  0.101858  1
  O  O54  1  0.685232  0.513310  0.394253  1
  O  O55  1  0.829742  0.518435  0.601499  1
  O  O56  1  0.830639  0.518641  0.900433  1
  O  O57  1  0.687701  0.169424  0.599408  1
  O  O58  1  0.685867  0.170450  0.894026  1
  O  O59  1  0.828566  0.315712  0.394169  1
  O  O60  1  0.830198  0.313015  0.099663  1
  O  O61  1  0.784269  0.999594  0.750951  1
  O  O62  1  0.796483  0.000514  0.423651  1
  O  O63  1  0.800345  0.003519  0.076458  1
