# generated using pymatgen
data_Li3Co3TeO8
_symmetry_space_group_name_H-M   'P 1'
_cell_length_a   10.45374819
_cell_length_b   10.45033722
_cell_length_c   14.77345504
_cell_angle_alpha   19.58113500
_cell_angle_beta   19.57824055
_cell_angle_gamma   33.72549567
_symmetry_Int_Tables_number   1
_chemical_formula_structural   Li3Co3TeO8
_chemical_formula_sum   'Li3 Co3 Te1 O8'
_cell_volume   157.11882541
_cell_formula_units_Z   1
loop_
 _symmetry_equiv_pos_site_id
 _symmetry_equiv_pos_as_xyz
  1  'x, y, z'
loop_
 _atom_site_type_symbol
 _atom_site_label
 _atom_site_symmetry_multiplicity
 _atom_site_fract_x
 _atom_site_fract_y
 _atom_site_fract_z
 _atom_site_occupancy
  Li  Li0  1  0.000016  0.500011  0.499978  1
  Li  Li1  1  0.499983  -0.000009  0.500023  1
  Li  Li2  1  0.500012  0.499986  0.500002  1
  Co  Co3  1  -0.000046  0.499968  0.000054  1
  Co  Co4  1  0.500033  0.000034  -0.000050  1
  Co  Co5  1  0.499948  0.500047  0.000002  1
  Te  Te6  1  0.000210  -0.000147  -0.000054  1
  O  O7  1  0.961776  0.961543  0.316814  1
  O  O8  1  0.004696  0.544506  0.224403  1
  O  O9  1  0.544712  0.004603  0.224282  1
  O  O10  1  0.038237  0.038448  0.683182  1
  O  O11  1  0.460076  0.459745  0.312247  1
  O  O12  1  0.995287  0.455619  0.775552  1
  O  O13  1  0.455183  0.995409  0.775759  1
  O  O14  1  0.539877  0.540237  0.687804  1
