# generated using pymatgen
data_Li2Mg3Ti6O16
_symmetry_space_group_name_H-M   'P 1'
_cell_length_a   8.48316338
_cell_length_b   8.47816185
_cell_length_c   8.47408318
_cell_angle_alpha   90.00000000
_cell_angle_beta   90.00000000
_cell_angle_gamma   90.26197918
_symmetry_Int_Tables_number   1
_chemical_formula_structural   Li2Mg3Ti6O16
_chemical_formula_sum   'Li4 Mg6 Ti12 O32'
_cell_volume   609.46352188
_cell_formula_units_Z   2
loop_
 _symmetry_equiv_pos_site_id
 _symmetry_equiv_pos_as_xyz
  1  'x, y, z'
loop_
 _atom_site_type_symbol
 _atom_site_label
 _atom_site_symmetry_multiplicity
 _atom_site_fract_x
 _atom_site_fract_y
 _atom_site_fract_z
 _atom_site_occupancy
  Li  Li0  1  0.123957  0.875166  0.375616  1
  Li  Li1  1  0.376043  0.124834  0.875616  1
  Li  Li2  1  0.501778  0.004613  0.497670  1
  Li  Li3  1  0.998222  0.995387  0.997670  1
  Mg  Mg4  1  0.006044  0.498375  0.504980  1
  Mg  Mg5  1  0.244353  0.749772  0.752643  1
  Mg  Mg6  1  0.255647  0.250228  0.252643  1
  Mg  Mg7  1  0.493956  0.501625  0.004980  1
  Mg  Mg8  1  0.747913  0.757781  0.244678  1
  Mg  Mg9  1  0.752087  0.242219  0.744678  1
  Ti  Ti10  1  0.116064  0.625164  0.131607  1
  Ti  Ti11  1  0.118218  0.364032  0.884638  1
  Ti  Ti12  1  0.134083  0.117358  0.626982  1
  Ti  Ti13  1  0.365916  0.882642  0.126982  1
  Ti  Ti14  1  0.381782  0.635968  0.384638  1
  Ti  Ti15  1  0.383936  0.374836  0.631607  1
  Ti  Ti16  1  0.619716  0.873431  0.863753  1
  Ti  Ti17  1  0.633188  0.131771  0.120333  1
  Ti  Ti18  1  0.634254  0.380777  0.374954  1
  Ti  Ti19  1  0.865746  0.619223  0.874954  1
  Ti  Ti20  1  0.866812  0.868229  0.620333  1
  Ti  Ti21  1  0.880284  0.126569  0.363753  1
  O  O22  1  0.105993  0.130873  0.388994  1
  O  O23  1  0.111148  0.895390  0.627699  1
  O  O24  1  0.112294  0.611581  0.889664  1
  O  O25  1  0.122234  0.145016  0.859660  1
  O  O26  1  0.142529  0.391730  0.103877  1
  O  O27  1  0.137664  0.360960  0.638481  1
  O  O28  1  0.139371  0.619992  0.354856  1
  O  O29  1  0.146726  0.857629  0.122471  1
  O  O30  1  0.353274  0.142371  0.622471  1
  O  O31  1  0.360629  0.380008  0.854856  1
  O  O32  1  0.362336  0.639040  0.138481  1
  O  O33  1  0.357471  0.608270  0.603877  1
  O  O34  1  0.377766  0.854984  0.359660  1
  O  O35  1  0.387706  0.388419  0.389664  1
  O  O36  1  0.388852  0.104610  0.127699  1
  O  O37  1  0.394007  0.869127  0.888994  1
  O  O38  1  0.603325  0.359536  0.607729  1
  O  O39  1  0.609240  0.604279  0.357310  1
  O  O40  1  0.610079  0.890208  0.112176  1
  O  O41  1  0.607439  0.352128  0.142354  1
  O  O42  1  0.628105  0.110664  0.894201  1
  O  O43  1  0.641471  0.139583  0.359401  1
  O  O44  1  0.641925  0.889993  0.646129  1
  O  O45  1  0.645167  0.640646  0.892469  1
  O  O46  1  0.854833  0.359354  0.392469  1
  O  O47  1  0.858075  0.110007  0.146129  1
  O  O48  1  0.858529  0.860417  0.859401  1
  O  O49  1  0.871895  0.889336  0.394201  1
  O  O50  1  0.892561  0.647872  0.642354  1
  O  O51  1  0.889921  0.109792  0.612176  1
  O  O52  1  0.890760  0.395721  0.857310  1
  O  O53  1  0.896675  0.640464  0.107729  1
