# generated using pymatgen
data_Li11Fe12(BO3)12
_symmetry_space_group_name_H-M   'P 1'
_cell_length_a   9.06624206
_cell_length_b   9.07925445
_cell_length_c   11.47254536
_cell_angle_alpha   91.16549876
_cell_angle_beta   67.97390103
_cell_angle_gamma   59.90999255
_symmetry_Int_Tables_number   1
_chemical_formula_structural   Li11Fe12(BO3)12
_chemical_formula_sum   'Li11 Fe12 B12 O36'
_cell_volume   731.45427161
_cell_formula_units_Z   1
loop_
 _symmetry_equiv_pos_site_id
 _symmetry_equiv_pos_as_xyz
  1  'x, y, z'
loop_
 _atom_site_type_symbol
 _atom_site_label
 _atom_site_symmetry_multiplicity
 _atom_site_fract_x
 _atom_site_fract_y
 _atom_site_fract_z
 _atom_site_occupancy
  Li  Li0  1  -0.002383  0.577309  0.587435  1
  Li  Li1  1  0.707130  0.570093  0.839559  1
  Li  Li2  1  0.672660  0.239449  0.586252  1
  Li  Li3  1  0.736748  0.046581  0.332012  1
  Li  Li4  1  0.379400  0.230285  0.838750  1
  Li  Li5  1  0.651006  0.758709  0.092572  1
  Li  Li6  1  0.326422  0.919447  0.600895  1
  Li  Li7  1  0.394198  0.720962  0.332881  1
  Li  Li8  1  0.043499  0.901418  0.842200  1
  Li  Li9  1  0.318065  0.422641  0.088606  1
  Li  Li10  1  0.064153  0.381022  0.335293  1
  Fe  Fe11  1  0.982807  0.250772  0.619230  1
  Fe  Fe12  1  0.692765  0.246712  0.872748  1
  Fe  Fe13  1  0.977526  0.407268  0.116770  1
  Fe  Fe14  1  0.637939  0.926715  0.621068  1
  Fe  Fe15  1  0.711701  0.391839  0.359742  1
  Fe  Fe16  1  0.350395  0.919104  0.880269  1
  Fe  Fe17  1  0.658641  0.098562  0.115021  1
  Fe  Fe18  1  0.312726  0.591406  0.620537  1
  Fe  Fe19  1  0.381035  0.063762  0.364091  1
  Fe  Fe20  1  0.023397  0.575476  0.876408  1
  Fe  Fe21  1  0.284865  0.777046  0.119917  1
  Fe  Fe22  1  0.038000  0.730081  0.366502  1
  B  B23  1  0.973351  0.923261  0.624403  1
  B  B24  1  0.697326  0.905063  0.872722  1
  B  B25  1  0.969433  0.752598  0.127749  1
  B  B26  1  0.636619  0.597607  0.625721  1
  B  B27  1  0.694208  0.735561  0.377595  1
  B  B28  1  0.362631  0.570241  0.871342  1
  B  B29  1  0.624849  0.442767  0.125622  1
  B  B30  1  0.311565  0.264907  0.623031  1
  B  B31  1  0.358942  0.405915  0.381347  1
  B  B32  1  0.035666  0.233446  0.864106  1
  B  B33  1  0.316946  0.096323  0.124494  1
  B  B34  1  0.029676  0.070319  0.373525  1
  O  O35  1  0.879519  0.325288  0.836341  1
  O  O36  1  0.773082  0.994561  0.900162  1
  O  O37  1  0.765429  0.734074  0.885949  1
  O  O38  1  0.917913  0.823702  0.584980  1
  O  O39  1  0.863539  0.106969  0.653021  1
  O  O40  1  0.803687  0.515382  0.637264  1
  O  O41  1  0.843670  0.153271  0.390391  1
  O  O42  1  0.551853  0.985951  0.835016  1
  O  O43  1  0.813901  0.552969  0.342089  1
  O  O44  1  0.423215  0.667364  0.909748  1
  O  O45  1  0.754903  0.840107  0.406459  1
  O  O46  1  0.430105  0.399757  0.883577  1
  O  O47  1  0.875761  0.930477  0.144525  1
  O  O48  1  0.574387  0.496699  0.589784  1
  O  O49  1  0.915773  0.652857  0.081815  1
  O  O50  1  0.523160  0.779419  0.653587  1
  O  O51  1  0.772416  0.360179  0.159666  1
  O  O52  1  0.475635  0.188826  0.638080  1
  O  O53  1  0.511202  0.817743  0.387778  1
  O  O54  1  0.224990  0.646911  0.822770  1
  O  O55  1  0.484966  0.225465  0.340704  1
  O  O56  1  0.106456  0.323494  0.899316  1
  O  O57  1  0.413091  0.513741  0.420669  1
  O  O58  1  0.118284  0.057452  0.855152  1
  O  O59  1  0.532503  0.621742  0.137543  1
  O  O60  1  0.250771  0.167607  0.586415  1
  O  O61  1  0.565705  0.344466  0.084312  1
  O  O62  1  0.197929  0.451859  0.648800  1
  O  O63  1  0.468678  0.015892  0.156969  1
  O  O64  1  0.144533  0.839584  0.636503  1
  O  O65  1  0.179788  0.485315  0.387096  1
  O  O66  1  0.148464  0.886573  0.330700  1
  O  O67  1  0.094665  0.169516  0.403063  1
  O  O68  1  0.219053  0.277575  0.138496  1
  O  O69  1  0.264404  0.997280  0.080158  1
  O  O70  1  0.125016  0.668636  0.156563  1
