# generated using pymatgen
data_LiV2OF5
_symmetry_space_group_name_H-M   'P 1'
_cell_length_a   10.39453698
_cell_length_b   10.44604709
_cell_length_c   11.05273630
_cell_angle_alpha   118.44633149
_cell_angle_beta   117.81700561
_cell_angle_gamma   60.42895264
_symmetry_Int_Tables_number   1
_chemical_formula_structural   LiV2OF5
_chemical_formula_sum   'Li8 V16 O8 F40'
_cell_volume   874.68659843
_cell_formula_units_Z   8
loop_
 _symmetry_equiv_pos_site_id
 _symmetry_equiv_pos_as_xyz
  1  'x, y, z'
loop_
 _atom_site_type_symbol
 _atom_site_label
 _atom_site_symmetry_multiplicity
 _atom_site_fract_x
 _atom_site_fract_y
 _atom_site_fract_z
 _atom_site_occupancy
  Li  Li0  1  0.111246  0.116981  0.831445  1
  Li  Li1  1  0.149788  0.134996  0.427295  1
  Li  Li2  1  0.145442  0.627522  0.414501  1
  Li  Li3  1  0.609704  0.116414  0.830940  1
  Li  Li4  1  0.647576  0.130894  0.418282  1
  Li  Li5  1  0.612057  0.619351  0.834934  1
  Li  Li6  1  0.352243  0.857751  0.074302  1
  Li  Li7  1  0.653486  0.632349  0.425673  1
  V  V8  1  0.009891  0.492352  0.995345  1
  V  V9  1  0.239829  0.261476  0.762595  1
  V  V10  1  0.007905  0.991605  0.997370  1
  V  V11  1  0.237355  0.752276  0.755030  1
  V  V12  1  0.256362  0.260135  0.254705  1
  V  V13  1  0.511134  0.485861  0.994820  1
  V  V14  1  0.741936  0.255985  0.760624  1
  V  V15  1  0.487352  0.494642  0.489122  1
  V  V16  1  0.253152  0.757047  0.252542  1
  V  V17  1  0.511927  0.992851  0.994281  1
  V  V18  1  0.746441  0.753217  0.761989  1
  V  V19  1  0.486720  0.993064  0.490352  1
  V  V20  1  0.755845  0.258929  0.253606  1
  V  V21  1  0.986923  0.493783  0.490479  1
  V  V22  1  0.755330  0.756900  0.253202  1
  V  V23  1  0.985474  0.994159  0.487853  1
  O  O24  1  0.122811  0.316091  0.875859  1
  O  O25  1  0.134874  0.832679  0.886831  1
  O  O26  1  0.317225  0.431932  0.373889  1
  O  O27  1  0.625648  0.314676  0.875572  1
  O  O28  1  0.316768  0.930611  0.372640  1
  O  O29  1  0.623457  0.818009  0.875298  1
  O  O30  1  0.816414  0.431464  0.374156  1
  O  O31  1  0.813551  0.932195  0.372772  1
  F  F32  1  0.168102  0.073520  0.622906  1
  F  F33  1  0.073072  0.365472  0.614919  1
  F  F34  1  0.443470  0.129003  0.872333  1
  F  F35  1  0.131572  0.298568  0.372299  1
  F  F36  1  0.317965  0.440588  0.876285  1
  F  F37  1  0.169864  0.572633  0.611350  1
  F  F38  1  0.365177  0.178504  0.623447  1
  F  F39  1  0.197748  0.061568  0.132074  1
  F  F40  1  0.066286  0.377480  0.124368  1
  F  F41  1  0.067660  0.882771  0.627336  1
  F  F42  1  0.450184  0.119793  0.376323  1
  F  F43  1  0.442577  0.634257  0.879714  1
  F  F44  1  0.131651  0.799168  0.376994  1
  F  F45  1  0.310558  0.944383  0.874563  1
  F  F46  1  0.669006  0.071216  0.622519  1
  F  F47  1  0.366406  0.679034  0.625534  1
  F  F48  1  0.185815  0.573764  0.132192  1
  F  F49  1  0.373073  0.173304  0.118139  1
  F  F50  1  0.065204  0.879141  0.127389  1
  F  F51  1  0.572406  0.376327  0.625556  1
  F  F52  1  0.448762  0.622087  0.375634  1
  F  F53  1  0.942829  0.131552  0.877880  1
  F  F54  1  0.632559  0.299777  0.376160  1
  F  F55  1  0.803979  0.448435  0.873152  1
  F  F56  1  0.668588  0.571145  0.623315  1
  F  F57  1  0.864582  0.178860  0.624061  1
  F  F58  1  0.375894  0.688820  0.119822  1
  F  F59  1  0.680651  0.073056  0.131927  1
  F  F60  1  0.565008  0.375768  0.127952  1
  F  F61  1  0.573340  0.877082  0.628199  1
  F  F62  1  0.949949  0.119196  0.375155  1
  F  F63  1  0.934877  0.627990  0.877289  1
  F  F64  1  0.628969  0.799949  0.372810  1
  F  F65  1  0.805072  0.948494  0.871648  1
  F  F66  1  0.852930  0.680466  0.613628  1
  F  F67  1  0.678471  0.574188  0.130253  1
  F  F68  1  0.874663  0.176746  0.119847  1
  F  F69  1  0.553154  0.873235  0.121547  1
  F  F70  1  0.947497  0.621842  0.376187  1
  F  F71  1  0.872264  0.676220  0.119994  1
