# generated using pymatgen
data_Li3Fe2(PO5)2
_symmetry_space_group_name_H-M   'P 1'
_cell_length_a   6.44122124
_cell_length_b   6.44122124
_cell_length_c   8.69118408
_cell_angle_alpha   90.00000000
_cell_angle_beta   90.00000000
_cell_angle_gamma   90.70848319
_symmetry_Int_Tables_number   1
_chemical_formula_structural   Li3Fe2(PO5)2
_chemical_formula_sum   'Li6 Fe4 P4 O20'
_cell_volume   360.56384627
_cell_formula_units_Z   2
loop_
 _symmetry_equiv_pos_site_id
 _symmetry_equiv_pos_as_xyz
  1  'x, y, z'
loop_
 _atom_site_type_symbol
 _atom_site_label
 _atom_site_symmetry_multiplicity
 _atom_site_fract_x
 _atom_site_fract_y
 _atom_site_fract_z
 _atom_site_occupancy
  Li  Li0  1  0.250000  0.750000  0.250000  1
  Li  Li1  1  0.250000  0.250000  0.250000  1
  Li  Li2  1  0.250000  0.250000  0.750000  1
  Li  Li3  1  0.750000  0.250000  0.750000  1
  Li  Li4  1  0.750000  0.750000  0.250000  1
  Li  Li5  1  0.750000  0.750000  0.750000  1
  Fe  Fe6  1  0.992612  0.492612  0.047493  1
  Fe  Fe7  1  0.007388  0.507388  0.547493  1
  Fe  Fe8  1  0.492612  0.992612  0.952507  1
  Fe  Fe9  1  0.507388  0.007388  0.452507  1
  P  P10  1  0.002721  0.002721  0.000000  1
  P  P11  1  0.997279  0.997279  0.500000  1
  P  P12  1  0.502721  0.502721  0.000000  1
  P  P13  1  0.497279  0.497279  0.500000  1
  O  O14  1  0.008863  0.194558  0.107270  1
  O  O15  1  0.002727  0.804867  0.101979  1
  O  O16  1  0.023925  0.523925  0.345674  1
  O  O17  1  0.997273  0.195133  0.601979  1
  O  O18  1  0.991137  0.805442  0.607270  1
  O  O19  1  0.976075  0.476075  0.845674  1
  O  O20  1  0.194558  0.008863  0.892730  1
  O  O21  1  0.195133  0.997273  0.398021  1
  O  O22  1  0.304867  0.502727  0.101979  1
  O  O23  1  0.305442  0.491137  0.607270  1
  O  O24  1  0.491137  0.305442  0.392730  1
  O  O25  1  0.502727  0.304867  0.898021  1
  O  O26  1  0.523925  0.023925  0.654326  1
  O  O27  1  0.476075  0.976075  0.154326  1
  O  O28  1  0.497273  0.695133  0.398021  1
  O  O29  1  0.508863  0.694558  0.892730  1
  O  O30  1  0.694558  0.508863  0.107270  1
  O  O31  1  0.695133  0.497273  0.601979  1
  O  O32  1  0.805442  0.991137  0.392730  1
  O  O33  1  0.804867  0.002727  0.898021  1
