# generated using pymatgen
data_LiFe2(CO3)4
_symmetry_space_group_name_H-M   'P 1'
_cell_length_a   6.74919201
_cell_length_b   7.69644509
_cell_length_c   5.21298093
_cell_angle_alpha   89.62576112
_cell_angle_beta   114.05600700
_cell_angle_gamma   91.11542447
_symmetry_Int_Tables_number   1
_chemical_formula_structural   LiFe2(CO3)4
_chemical_formula_sum   'Li1 Fe2 C4 O12'
_cell_volume   247.22146864
_cell_formula_units_Z   1
loop_
 _symmetry_equiv_pos_site_id
 _symmetry_equiv_pos_as_xyz
  1  'x, y, z'
loop_
 _atom_site_type_symbol
 _atom_site_label
 _atom_site_symmetry_multiplicity
 _atom_site_fract_x
 _atom_site_fract_y
 _atom_site_fract_z
 _atom_site_occupancy
  Li  Li0  1  0.814710  0.562075  0.610596  1
  Fe  Fe1  1  0.003906  0.998892  0.005257  1
  Fe  Fe2  1  0.484016  0.500674  0.978462  1
  C  C3  1  0.124898  0.265616  0.865467  1
  C  C4  1  0.376626  0.764203  0.138984  1
  C  C5  1  0.633822  0.241799  0.864131  1
  C  C6  1  0.870135  0.731242  0.141793  1
  O  O7  1  0.083081  0.128542  0.709245  1
  O  O8  1  0.175430  0.414941  0.787836  1
  O  O9  1  0.388176  0.743999  0.895418  1
  O  O10  1  0.106442  0.248888  0.103534  1
  O  O11  1  0.308044  0.902437  0.203254  1
  O  O12  1  0.439830  0.629982  0.304488  1
  O  O13  1  0.608078  0.384551  0.715455  1
  O  O14  1  0.699748  0.100490  0.806654  1
  O  O15  1  0.889646  0.741933  0.901318  1
  O  O16  1  0.580138  0.257092  0.077735  1
  O  O17  1  0.802154  0.590892  0.219260  1
  O  O18  1  0.922637  0.869655  0.294818  1
