# generated using pymatgen
data_Li3Ti6Zn3O16
_symmetry_space_group_name_H-M   'P 1'
_cell_length_a   8.47176148
_cell_length_b   8.47411959
_cell_length_c   8.47041268
_cell_angle_alpha   89.99665334
_cell_angle_beta   89.98387373
_cell_angle_gamma   89.92916686
_symmetry_Int_Tables_number   1
_chemical_formula_structural   Li3Ti6Zn3O16
_chemical_formula_sum   'Li6 Ti12 Zn6 O32'
_cell_volume   608.09653467
_cell_formula_units_Z   2
loop_
 _symmetry_equiv_pos_site_id
 _symmetry_equiv_pos_as_xyz
  1  'x, y, z'
loop_
 _atom_site_type_symbol
 _atom_site_label
 _atom_site_symmetry_multiplicity
 _atom_site_fract_x
 _atom_site_fract_y
 _atom_site_fract_z
 _atom_site_occupancy
  Li  Li0  1  0.124717  0.875547  0.375040  1
  Li  Li1  1  0.375316  0.124552  0.874984  1
  Li  Li2  1  0.501980  0.001802  0.497915  1
  Li  Li3  1  0.624851  0.625084  0.624724  1
  Li  Li4  1  0.875113  0.374814  0.124816  1
  Li  Li5  1  0.998023  0.998214  0.997945  1
  Ti  Ti6  1  0.119177  0.627811  0.130436  1
  Ti  Ti7  1  0.123930  0.364484  0.881122  1
  Ti  Ti8  1  0.134949  0.116830  0.626785  1
  Ti  Ti9  1  0.365020  0.883268  0.126993  1
  Ti  Ti10  1  0.376306  0.635485  0.381227  1
  Ti  Ti11  1  0.380781  0.372083  0.630372  1
  Ti  Ti12  1  0.621791  0.876517  0.866334  1
  Ti  Ti13  1  0.629660  0.129575  0.122156  1
  Ti  Ti14  1  0.630313  0.377205  0.375246  1
  Ti  Ti15  1  0.869604  0.622759  0.875003  1
  Ti  Ti16  1  0.870412  0.870500  0.622154  1
  Ti  Ti17  1  0.878167  0.123618  0.366438  1
  Zn  Zn18  1  0.000958  0.498620  0.500880  1
  Zn  Zn19  1  0.249423  0.749320  0.752143  1
  Zn  Zn20  1  0.250550  0.250724  0.252087  1
  Zn  Zn21  1  0.498967  0.501305  0.000952  1
  Zn  Zn22  1  0.747786  0.752263  0.249261  1
  Zn  Zn23  1  0.752256  0.247790  0.749324  1
  O  O24  1  0.106776  0.127618  0.390981  1
  O  O25  1  0.111098  0.892850  0.627192  1
  O  O26  1  0.113168  0.612979  0.887068  1
  O  O27  1  0.123270  0.144458  0.857322  1
  O  O28  1  0.127993  0.389942  0.107418  1
  O  O29  1  0.136547  0.363794  0.637245  1
  O  O30  1  0.139517  0.621929  0.357726  1
  O  O31  1  0.144957  0.857717  0.123032  1
  O  O32  1  0.355090  0.142323  0.623007  1
  O  O33  1  0.360541  0.378136  0.857740  1
  O  O34  1  0.363417  0.636244  0.137320  1
  O  O35  1  0.371984  0.610040  0.607455  1
  O  O36  1  0.376751  0.855424  0.357315  1
  O  O37  1  0.386736  0.387005  0.387024  1
  O  O38  1  0.388958  0.107165  0.127163  1
  O  O39  1  0.393194  0.872365  0.890948  1
  O  O40  1  0.608068  0.372419  0.611519  1
  O  O41  1  0.610176  0.607215  0.372495  1
  O  O42  1  0.612137  0.887599  0.112433  1
  O  O43  1  0.622618  0.357853  0.138769  1
  O  O44  1  0.626460  0.110936  0.892403  1
  O  O45  1  0.639076  0.138855  0.361661  1
  O  O46  1  0.641923  0.876373  0.644149  1
  O  O47  1  0.642051  0.638442  0.876553  1
  O  O48  1  0.857931  0.361611  0.376554  1
  O  O49  1  0.858154  0.123683  0.144104  1
  O  O50  1  0.860773  0.861109  0.861618  1
  O  O51  1  0.873536  0.889040  0.392345  1
  O  O52  1  0.877409  0.642149  0.638698  1
  O  O53  1  0.887925  0.112463  0.612434  1
  O  O54  1  0.889870  0.392760  0.872526  1
  O  O55  1  0.892051  0.627535  0.111443  1
