# generated using pymatgen
data_Li4MnV3O8
_symmetry_space_group_name_H-M   'P 1'
_cell_length_a   5.92822591
_cell_length_b   6.03828098
_cell_length_c   5.94089113
_cell_angle_alpha   60.31805540
_cell_angle_beta   90.11232241
_cell_angle_gamma   60.65520632
_symmetry_Int_Tables_number   1
_chemical_formula_structural   Li4MnV3O8
_chemical_formula_sum   'Li4 Mn1 V3 O8'
_cell_volume   152.41698198
_cell_formula_units_Z   1
loop_
 _symmetry_equiv_pos_site_id
 _symmetry_equiv_pos_as_xyz
  1  'x, y, z'
loop_
 _atom_site_type_symbol
 _atom_site_label
 _atom_site_symmetry_multiplicity
 _atom_site_fract_x
 _atom_site_fract_y
 _atom_site_fract_z
 _atom_site_occupancy
  Li  Li0  1  0.986467  0.513555  0.496221  1
  Li  Li1  1  0.486875  0.512384  0.495509  1
  Li  Li2  1  0.492081  0.007313  0.498968  1
  Li  Li3  1  0.991013  0.010259  0.497053  1
  Mn  Mn4  1  0.993157  0.005887  0.996654  1
  V  V5  1  0.493335  0.005456  0.997005  1
  V  V6  1  0.493757  0.504778  0.998143  1
  V  V7  1  0.994088  0.504741  0.998386  1
  O  O8  1  0.762053  0.983827  0.776449  1
  O  O9  1  0.245929  0.984237  0.776684  1
  O  O10  1  0.736352  0.518565  0.757076  1
  O  O11  1  0.255090  0.481097  0.771152  1
  O  O12  1  0.732242  0.528860  0.224874  1
  O  O13  1  0.250892  0.492172  0.238559  1
  O  O14  1  0.741764  0.024949  0.218845  1
  O  O15  1  0.225574  0.025384  0.219124  1
