# generated using pymatgen
data_Na2LiTi3Al(PO4)6
_symmetry_space_group_name_H-M   'P 1'
_cell_length_a   8.57556570
_cell_length_b   8.82680724
_cell_length_c   8.60115092
_cell_angle_alpha   119.21801364
_cell_angle_beta   59.81702825
_cell_angle_gamma   119.44849060
_symmetry_Int_Tables_number   1
_chemical_formula_structural   Na2LiTi3Al(PO4)6
_chemical_formula_sum   'Na2 Li1 Ti3 Al1 P6 O24'
_cell_volume   464.29349911
_cell_formula_units_Z   1
loop_
 _symmetry_equiv_pos_site_id
 _symmetry_equiv_pos_as_xyz
  1  'x, y, z'
loop_
 _atom_site_type_symbol
 _atom_site_label
 _atom_site_symmetry_multiplicity
 _atom_site_fract_x
 _atom_site_fract_y
 _atom_site_fract_z
 _atom_site_occupancy
  Na  Na0  1  0.014389  0.001454  0.989354  1
  Na  Na1  1  0.487726  0.502920  0.503170  1
  Li  Li2  1  0.757829  0.256175  0.346076  1
  Ti  Ti3  1  0.348025  0.061367  0.352553  1
  Ti  Ti4  1  0.856520  0.571045  0.856744  1
  Ti  Ti5  1  0.641896  0.931343  0.642468  1
  Al  Al6  1  0.150517  0.437107  0.139539  1
  P  P7  1  0.036920  0.252787  0.457418  1
  P  P8  1  0.458565  0.252468  0.754388  1
  P  P9  1  0.756677  0.251952  0.033549  1
  P  P10  1  0.248745  0.742764  0.962138  1
  P  P11  1  0.532977  0.748285  0.248574  1
  P  P12  1  0.958945  0.739082  0.529791  1
  O  O13  1  0.045140  0.264538  0.279778  1
  O  O14  1  0.222610  0.237837  0.428380  1
  O  O15  1  0.006752  0.424548  0.629971  1
  O  O16  1  0.491050  0.078109  0.717701  1
  O  O17  1  0.275071  0.267692  0.924033  1
  O  O18  1  0.453056  0.240852  0.570232  1
  O  O19  1  0.718948  0.079235  0.864430  1
  O  O20  1  0.586280  0.239250  0.223493  1
  O  O21  1  0.212259  0.573766  0.996460  1
  O  O22  1  0.078006  0.737841  0.940287  1
  O  O23  1  0.865251  0.078392  0.492266  1
  O  O24  1  0.361710  0.579368  0.214898  1
  O  O25  1  0.634029  0.423725  0.785129  1
  O  O26  1  0.132217  0.914698  0.495079  1
  O  O27  1  0.924217  0.265657  0.067572  1
  O  O28  1  0.787245  0.422746  0.002032  1
  O  O29  1  0.423384  0.761076  0.778861  1
  O  O30  1  0.288375  0.920734  0.130388  1
  O  O31  1  0.558115  0.762596  0.422364  1
  O  O32  1  0.720596  0.738290  0.076614  1
  O  O33  1  0.513041  0.930509  0.286704  1
  O  O34  1  0.985295  0.563983  0.364858  1
  O  O35  1  0.777000  0.759115  0.556798  1
  O  O36  1  0.940622  0.736692  0.716909  1
