# generated using pymatgen
data_Li4FeOF5
_symmetry_space_group_name_H-M   'P 1'
_cell_length_a   5.13203784
_cell_length_b   5.13203720
_cell_length_c   10.21928868
_cell_angle_alpha   79.69876158
_cell_angle_beta   100.30123857
_cell_angle_gamma   60.79352183
_symmetry_Int_Tables_number   1
_chemical_formula_structural   Li4FeOF5
_chemical_formula_sum   'Li8 Fe2 O2 F10'
_cell_volume   219.77403134
_cell_formula_units_Z   2
loop_
 _symmetry_equiv_pos_site_id
 _symmetry_equiv_pos_as_xyz
  1  'x, y, z'
loop_
 _atom_site_type_symbol
 _atom_site_label
 _atom_site_symmetry_multiplicity
 _atom_site_fract_x
 _atom_site_fract_y
 _atom_site_fract_z
 _atom_site_occupancy
  Li  Li0  1  0.156540  0.209599  0.740339  1
  Li  Li1  1  0.187218  0.156325  0.248453  1
  Li  Li2  1  0.316030  0.344863  0.503322  1
  Li  Li3  1  0.496839  0.493203  0.752753  1
  Li  Li4  1  0.506797  0.503161  0.252753  1
  Li  Li5  1  0.843675  0.812783  0.748453  1
  Li  Li6  1  0.655137  0.683970  0.003322  1
  Li  Li7  1  0.790401  0.843460  0.240339  1
  Fe  Fe8  1  0.006966  0.963490  0.509816  1
  Fe  Fe9  1  0.036510  0.993034  0.009816  1
  O  O10  1  0.104637  0.597950  0.628081  1
  O  O11  1  0.402050  0.895363  0.128081  1
  F  F12  1  0.239927  0.795292  0.871925  1
  F  F13  1  0.051652  0.614907  0.125543  1
  F  F14  1  0.636097  0.053421  0.874212  1
  F  F15  1  0.585963  0.111564  0.367431  1
  F  F16  1  0.204708  0.760073  0.371925  1
  F  F17  1  0.755812  0.225403  0.618780  1
  F  F18  1  0.385093  0.948348  0.625543  1
  F  F19  1  0.888436  0.414037  0.867431  1
  F  F20  1  0.774597  0.244188  0.118780  1
  F  F21  1  0.946579  0.363903  0.374212  1
