# generated using pymatgen
data_LiNi2(SO4)3
_symmetry_space_group_name_H-M   'P 1'
_cell_length_a   8.67978634
_cell_length_b   8.67978634
_cell_length_c   8.67978653
_cell_angle_alpha   59.43378214
_cell_angle_beta   59.43378214
_cell_angle_gamma   59.43378506
_symmetry_Int_Tables_number   1
_chemical_formula_structural   LiNi2(SO4)3
_chemical_formula_sum   'Li2 Ni4 S6 O24'
_cell_volume   456.43715408
_cell_formula_units_Z   2
loop_
 _symmetry_equiv_pos_site_id
 _symmetry_equiv_pos_as_xyz
  1  'x, y, z'
loop_
 _atom_site_type_symbol
 _atom_site_label
 _atom_site_symmetry_multiplicity
 _atom_site_fract_x
 _atom_site_fract_y
 _atom_site_fract_z
 _atom_site_occupancy
  Li  Li0  1  0.000000  0.000000  0.000000  1
  Li  Li1  1  0.500000  0.500000  0.500000  1
  Ni  Ni2  1  0.355581  0.355581  0.355581  1
  Ni  Ni3  1  0.144419  0.144419  0.144419  1
  Ni  Ni4  1  0.644419  0.644419  0.644419  1
  Ni  Ni5  1  0.855581  0.855581  0.855581  1
  S  S6  1  0.044420  0.750000  0.455580  1
  S  S7  1  0.544420  0.955580  0.250000  1
  S  S8  1  0.250000  0.544420  0.955580  1
  S  S9  1  0.750000  0.455580  0.044420  1
  S  S10  1  0.455580  0.044420  0.750000  1
  S  S11  1  0.955580  0.250000  0.544420  1
  O  O12  1  0.063160  0.907540  0.266498  1
  O  O13  1  0.092460  0.733502  0.936840  1
  O  O14  1  0.491261  0.895896  0.690485  1
  O  O15  1  0.604104  0.008739  0.809515  1
  O  O16  1  0.233502  0.592460  0.436840  1
  O  O17  1  0.563160  0.766498  0.407540  1
  O  O18  1  0.733502  0.936840  0.092460  1
  O  O19  1  0.991261  0.190485  0.395896  1
  O  O20  1  0.309515  0.508739  0.104104  1
  O  O21  1  0.104104  0.309515  0.508739  1
  O  O22  1  0.190485  0.395896  0.991261  1
  O  O23  1  0.407540  0.563160  0.766498  1
  O  O24  1  0.592460  0.436840  0.233502  1
  O  O25  1  0.895896  0.690485  0.491261  1
  O  O26  1  0.809515  0.604104  0.008739  1
  O  O27  1  0.008739  0.809515  0.604104  1
  O  O28  1  0.690485  0.491261  0.895896  1
  O  O29  1  0.266498  0.063160  0.907540  1
  O  O30  1  0.436840  0.233502  0.592460  1
  O  O31  1  0.766498  0.407540  0.563160  1
  O  O32  1  0.508739  0.104104  0.309515  1
  O  O33  1  0.395896  0.991261  0.190485  1
  O  O34  1  0.907540  0.266498  0.063160  1
  O  O35  1  0.936840  0.092460  0.733502  1
