# generated using pymatgen
data_Li4Ti3Ni3(TeO8)2
_symmetry_space_group_name_H-M   'P 1'
_cell_length_a   5.94405359
_cell_length_b   5.97751127
_cell_length_c   10.01733679
_cell_angle_alpha   89.99926690
_cell_angle_beta   89.73365180
_cell_angle_gamma   120.18747251
_symmetry_Int_Tables_number   1
_chemical_formula_structural   Li4Ti3Ni3(TeO8)2
_chemical_formula_sum   'Li4 Ti3 Ni3 Te2 O16'
_cell_volume   307.64949088
_cell_formula_units_Z   1
loop_
 _symmetry_equiv_pos_site_id
 _symmetry_equiv_pos_as_xyz
  1  'x, y, z'
loop_
 _atom_site_type_symbol
 _atom_site_label
 _atom_site_symmetry_multiplicity
 _atom_site_fract_x
 _atom_site_fract_y
 _atom_site_fract_z
 _atom_site_occupancy
  Li  Li0  1  0.327680  0.663856  0.909225  1
  Li  Li1  1  0.994692  0.997354  0.985178  1
  Li  Li2  1  0.005390  0.002738  0.490945  1
  Li  Li3  1  0.663178  0.331605  0.405203  1
  Ti  Ti4  1  0.185443  0.831951  0.218692  1
  Ti  Ti5  1  0.185448  0.353543  0.218686  1
  Ti  Ti6  1  0.345348  0.172704  0.723037  1
  Ni  Ni7  1  0.656982  0.828510  0.203304  1
  Ni  Ni8  1  0.829102  0.657796  0.719167  1
  Ni  Ni9  1  0.829093  0.171197  0.719250  1
  Te  Te10  1  0.346730  0.673389  0.509340  1
  Te  Te11  1  0.675537  0.337781  0.985021  1
  O  O12  1  0.184626  0.844526  0.610787  1
  O  O13  1  0.020715  0.510366  0.316963  1
  O  O14  1  0.311635  0.655842  0.104140  1
  O  O15  1  0.004462  0.002251  0.293717  1
  O  O16  1  0.012227  0.006083  0.802944  1
  O  O17  1  0.184663  0.340157  0.610808  1
  O  O18  1  0.468987  0.979381  0.324056  1
  O  O19  1  0.468989  0.489641  0.324044  1
  O  O20  1  0.337199  0.168622  0.088948  1
  O  O21  1  0.679814  0.839911  0.596973  1
  O  O22  1  0.508998  0.468319  0.856612  1
  O  O23  1  0.508993  0.040695  0.856632  1
  O  O24  1  0.643916  0.321959  0.610155  1
  O  O25  1  0.830005  0.660885  0.084591  1
  O  O26  1  0.960141  0.480078  0.854818  1
  O  O27  1  0.830006  0.169160  0.084600  1
