# generated using pymatgen
data_Li4NbTe2WO12
_symmetry_space_group_name_H-M   'P 1'
_cell_length_a   5.70154203
_cell_length_b   11.54447012
_cell_length_c   10.27569242
_cell_angle_alpha   27.04740274
_cell_angle_beta   49.67592496
_cell_angle_gamma   54.65967185
_symmetry_Int_Tables_number   1
_chemical_formula_structural   Li4NbTe2WO12
_chemical_formula_sum   'Li4 Nb1 Te2 W1 O12'
_cell_volume   234.47773228
_cell_formula_units_Z   1
loop_
 _symmetry_equiv_pos_site_id
 _symmetry_equiv_pos_as_xyz
  1  'x, y, z'
loop_
 _atom_site_type_symbol
 _atom_site_label
 _atom_site_symmetry_multiplicity
 _atom_site_fract_x
 _atom_site_fract_y
 _atom_site_fract_z
 _atom_site_occupancy
  Li  Li0  1  0.279225  0.999432  0.296569  1
  Li  Li1  1  0.305079  0.500737  0.287563  1
  Li  Li2  1  0.789083  0.004446  0.776191  1
  Li  Li3  1  0.780944  0.492598  0.799776  1
  Nb  Nb4  1  0.996594  0.500546  0.011694  1
  Te  Te5  1  0.493335  0.011333  0.504708  1
  Te  Te6  1  0.518180  0.499330  0.519665  1
  W  W7  1  0.001171  0.998459  0.010727  1
  O  O8  1  0.372421  0.305781  0.123489  1
  O  O9  1  0.206646  0.137694  0.613552  1
  O  O10  1  0.062273  0.310127  0.751084  1
  O  O11  1  0.875062  0.203369  0.215664  1
  O  O12  1  0.374555  0.848508  0.058062  1
  O  O13  1  0.737980  0.355213  0.369758  1
  O  O14  1  0.259059  0.626364  0.623060  1
  O  O15  1  0.615308  0.156506  0.899668  1
  O  O16  1  0.118479  0.816339  0.738946  1
  O  O17  1  0.892925  0.692596  0.233238  1
  O  O18  1  0.766352  0.855608  0.370261  1
  O  O19  1  0.626531  0.685013  0.867524  1
