# generated using pymatgen
data_Li5Ti2Ni5O12
_symmetry_space_group_name_H-M   'P 1'
_cell_length_a   5.11241441
_cell_length_b   5.11241406
_cell_length_c   9.78247224
_cell_angle_alpha   85.14783964
_cell_angle_beta   94.85216687
_cell_angle_gamma   59.32625491
_symmetry_Int_Tables_number   1
_chemical_formula_structural   Li5Ti2Ni5O12
_chemical_formula_sum   'Li5 Ti2 Ni5 O12'
_cell_volume   216.67308367
_cell_formula_units_Z   1
loop_
 _symmetry_equiv_pos_site_id
 _symmetry_equiv_pos_as_xyz
  1  'x, y, z'
loop_
 _atom_site_type_symbol
 _atom_site_label
 _atom_site_symmetry_multiplicity
 _atom_site_fract_x
 _atom_site_fract_y
 _atom_site_fract_z
 _atom_site_occupancy
  Li  Li0  1  0.169797  0.677230  0.503862  1
  Li  Li1  1  0.326855  0.831282  0.994103  1
  Li  Li2  1  0.677230  0.169797  0.996138  1
  Li  Li3  1  0.831282  0.326855  0.505897  1
  Li  Li4  1  0.916357  0.916357  0.750000  1
  Ti  Ti5  1  0.245933  0.245933  0.750000  1
  Ti  Ti6  1  0.747708  0.747708  0.250000  1
  Ni  Ni7  1  0.082215  0.082215  0.250000  1
  Ni  Ni8  1  0.999295  0.506705  0.995360  1
  Ni  Ni9  1  0.506705  0.999295  0.504640  1
  Ni  Ni10  1  0.416996  0.416996  0.250000  1
  Ni  Ni11  1  0.580493  0.580493  0.750000  1
  O  O12  1  0.974275  0.218910  0.871160  1
  O  O13  1  0.218910  0.974275  0.628840  1
  O  O14  1  0.113093  0.386743  0.367981  1
  O  O15  1  0.386743  0.113093  0.132019  1
  O  O16  1  0.299335  0.521496  0.867770  1
  O  O17  1  0.521496  0.299335  0.632230  1
  O  O18  1  0.471396  0.715395  0.369634  1
  O  O19  1  0.715395  0.471396  0.130366  1
  O  O20  1  0.609007  0.875633  0.865538  1
  O  O21  1  0.875633  0.609007  0.634462  1
  O  O22  1  0.785345  0.028503  0.369744  1
  O  O23  1  0.028503  0.785345  0.130256  1
