# generated using pymatgen
data_Ti3Mn3(TeO8)2
_symmetry_space_group_name_H-M   'P 1'
_cell_length_a   6.17978099
_cell_length_b   6.01539970
_cell_length_c   9.28623411
_cell_angle_alpha   89.98423995
_cell_angle_beta   92.48994455
_cell_angle_gamma   119.04225580
_symmetry_Int_Tables_number   1
_chemical_formula_structural   Ti3Mn3(TeO8)2
_chemical_formula_sum   'Ti3 Mn3 Te2 O16'
_cell_volume   301.42910057
_cell_formula_units_Z   1
loop_
 _symmetry_equiv_pos_site_id
 _symmetry_equiv_pos_as_xyz
  1  'x, y, z'
loop_
 _atom_site_type_symbol
 _atom_site_label
 _atom_site_symmetry_multiplicity
 _atom_site_fract_x
 _atom_site_fract_y
 _atom_site_fract_z
 _atom_site_occupancy
  Ti  Ti0  1  0.175428  0.836707  0.207014  1
  Ti  Ti1  1  0.174863  0.338688  0.207314  1
  Ti  Ti2  1  0.332250  0.165636  0.714550  1
  Mn  Mn3  1  0.660739  0.829898  0.202721  1
  Mn  Mn4  1  0.830688  0.661544  0.704281  1
  Mn  Mn5  1  0.831277  0.169575  0.703935  1
  Te  Te6  1  0.340592  0.669955  0.487445  1
  Te  Te7  1  0.669819  0.335468  0.987020  1
  O  O8  1  0.203146  0.835790  0.604130  1
  O  O9  1  0.051586  0.526285  0.345830  1
  O  O10  1  0.290646  0.645137  0.102625  1
  O  O11  1  0.024130  0.012145  0.291365  1
  O  O12  1  0.006588  0.003070  0.790299  1
  O  O13  1  0.202091  0.366146  0.604310  1
  O  O14  1  0.455069  0.948029  0.350193  1
  O  O15  1  0.453899  0.504997  0.350257  1
  O  O16  1  0.366087  0.183146  0.107939  1
  O  O17  1  0.663979  0.831126  0.591983  1
  O  O18  1  0.500665  0.460722  0.852520  1
  O  O19  1  0.503404  0.041647  0.852328  1
  O  O20  1  0.657681  0.329135  0.612777  1
  O  O21  1  0.834145  0.647878  0.099767  1
  O  O22  1  0.937776  0.470378  0.845064  1
  O  O23  1  0.833453  0.187097  0.100050  1
