# generated using pymatgen
data_Mn7Co(PO4)12
_symmetry_space_group_name_H-M   'P 1'
_cell_length_a   8.44959522
_cell_length_b   8.43612232
_cell_length_c   11.75698164
_cell_angle_alpha   90.03044610
_cell_angle_beta   89.98921420
_cell_angle_gamma   90.07278695
_symmetry_Int_Tables_number   1
_chemical_formula_structural   Mn7Co(PO4)12
_chemical_formula_sum   'Mn7 Co1 P12 O48'
_cell_volume   838.05822660
_cell_formula_units_Z   1
loop_
 _symmetry_equiv_pos_site_id
 _symmetry_equiv_pos_as_xyz
  1  'x, y, z'
loop_
 _atom_site_type_symbol
 _atom_site_label
 _atom_site_symmetry_multiplicity
 _atom_site_fract_x
 _atom_site_fract_y
 _atom_site_fract_z
 _atom_site_occupancy
  Mn  Mn0  1  0.249844  0.965848  0.618165  1
  Mn  Mn1  1  0.250705  0.534495  0.380838  1
  Mn  Mn2  1  0.249641  0.034638  0.118363  1
  Mn  Mn3  1  0.250153  0.465285  0.882426  1
  Mn  Mn4  1  0.750565  0.534497  0.118437  1
  Mn  Mn5  1  0.750110  0.965649  0.882314  1
  Mn  Mn6  1  0.749235  0.034782  0.381653  1
  Co  Co7  1  0.748764  0.464814  0.617610  1
  P  P8  1  0.035782  0.250294  0.499158  1
  P  P9  1  0.106118  0.391453  0.145427  1
  P  P10  1  0.105953  0.108679  0.854808  1
  P  P11  1  0.393513  0.607709  0.644958  1
  P  P12  1  0.393658  0.891659  0.354573  1
  P  P13  1  0.463608  0.750030  0.000326  1
  P  P14  1  0.536376  0.250083  0.999874  1
  P  P15  1  0.606650  0.391028  0.355523  1
  P  P16  1  0.607458  0.108190  0.645344  1
  P  P17  1  0.893283  0.609153  0.854179  1
  P  P18  1  0.893582  0.891655  0.145718  1
  P  P19  1  0.963554  0.748784  0.499706  1
  O  O20  1  0.061260  0.641933  0.421976  1
  O  O21  1  0.059296  0.857779  0.578105  1
  O  O22  1  0.075525  0.900746  0.160038  1
  O  O23  1  0.075378  0.599664  0.840506  1
  O  O24  1  0.147638  0.159997  0.579903  1
  O  O25  1  0.144569  0.342315  0.417228  1
  O  O26  1  0.158257  0.438758  0.026240  1
  O  O27  1  0.158561  0.060584  0.973600  1
  O  O28  1  0.150983  0.220878  0.176142  1
  O  O29  1  0.150898  0.279411  0.824164  1
  O  O30  1  0.180307  0.514135  0.227159  1
  O  O31  1  0.178603  0.986695  0.771872  1
  O  O32  1  0.320583  0.014049  0.272448  1
  O  O33  1  0.319418  0.486264  0.727305  1
  O  O34  1  0.348730  0.778356  0.676311  1
  O  O35  1  0.349550  0.720786  0.323581  1
  O  O36  1  0.340490  0.561410  0.526075  1
  O  O37  1  0.340594  0.938587  0.473714  1
  O  O38  1  0.353957  0.841534  0.081834  1
  O  O39  1  0.354233  0.658457  0.918403  1
  O  O40  1  0.425929  0.097910  0.660536  1
  O  O41  1  0.424492  0.399374  0.341310  1
  O  O42  1  0.439742  0.141457  0.077603  1
  O  O43  1  0.439717  0.358808  0.922304  1
  O  O44  1  0.560484  0.641456  0.077753  1
  O  O45  1  0.560247  0.858753  0.922525  1
  O  O46  1  0.577441  0.598178  0.660317  1
  O  O47  1  0.575632  0.900205  0.341254  1
  O  O48  1  0.646435  0.341375  0.081418  1
  O  O49  1  0.645295  0.158383  0.917944  1
  O  O50  1  0.659566  0.061163  0.526297  1
  O  O51  1  0.659329  0.440546  0.473964  1
  O  O52  1  0.651079  0.220596  0.323872  1
  O  O53  1  0.651406  0.280790  0.677089  1
  O  O54  1  0.677624  0.513896  0.272222  1
  O  O55  1  0.681657  0.985827  0.727263  1
  O  O56  1  0.819832  0.013860  0.227780  1
  O  O57  1  0.821003  0.485526  0.770700  1
  O  O58  1  0.849350  0.720662  0.176495  1
  O  O59  1  0.850003  0.780162  0.824451  1
  O  O60  1  0.841241  0.561152  0.973187  1
  O  O61  1  0.841091  0.939166  0.026761  1
  O  O62  1  0.850984  0.658333  0.581693  1
  O  O63  1  0.854925  0.841060  0.418062  1
  O  O64  1  0.923936  0.099983  0.840814  1
  O  O65  1  0.924102  0.399907  0.159634  1
  O  O66  1  0.939947  0.140586  0.421732  1
  O  O67  1  0.940131  0.359818  0.579021  1
