# generated using pymatgen
data_Li8VO5F
_symmetry_space_group_name_H-M   'P 1'
_cell_length_a   5.42294264
_cell_length_b   6.01172966
_cell_length_c   5.45319222
_cell_angle_alpha   116.14755576
_cell_angle_beta   61.62988815
_cell_angle_gamma   117.54168401
_symmetry_Int_Tables_number   1
_chemical_formula_structural   Li8VO5F
_chemical_formula_sum   'Li8 V1 O5 F1'
_cell_volume   133.02196226
_cell_formula_units_Z   1
loop_
 _symmetry_equiv_pos_site_id
 _symmetry_equiv_pos_as_xyz
  1  'x, y, z'
loop_
 _atom_site_type_symbol
 _atom_site_label
 _atom_site_symmetry_multiplicity
 _atom_site_fract_x
 _atom_site_fract_y
 _atom_site_fract_z
 _atom_site_occupancy
  Li  Li0  1  0.120010  0.362305  0.481335  1
  Li  Li1  1  0.522746  0.653474  0.234538  1
  Li  Li2  1  0.234432  0.641516  0.895208  1
  Li  Li3  1  0.294244  0.011002  0.346010  1
  Li  Li4  1  0.653852  0.962556  0.678000  1
  Li  Li5  1  0.769992  0.357235  0.090590  1
  Li  Li6  1  0.473952  0.362231  0.783533  1
  Li  Li7  1  0.900533  0.653269  0.516493  1
  V  V8  1  0.014693  0.983313  0.976603  1
  O  O9  1  0.246833  0.760577  0.605057  1
  O  O10  1  0.379506  0.238729  0.094332  1
  O  O11  1  0.081264  0.233845  0.765941  1
  O  O12  1  0.922787  0.762920  0.228572  1
  O  O13  1  0.625206  0.755033  0.901586  1
  F  F14  1  0.759950  0.261996  0.402201  1
