# generated using pymatgen
data_Li4Mn2V3Cr3O16
_symmetry_space_group_name_H-M   'P 1'
_cell_length_a   5.87935307
_cell_length_b   5.93721621
_cell_length_c   9.64238475
_cell_angle_alpha   90.16693214
_cell_angle_beta   87.45315480
_cell_angle_gamma   120.24957369
_symmetry_Int_Tables_number   1
_chemical_formula_structural   Li4Mn2V3Cr3O16
_chemical_formula_sum   'Li4 Mn2 V3 Cr3 O16'
_cell_volume   290.39559219
_cell_formula_units_Z   1
loop_
 _symmetry_equiv_pos_site_id
 _symmetry_equiv_pos_as_xyz
  1  'x, y, z'
loop_
 _atom_site_type_symbol
 _atom_site_label
 _atom_site_symmetry_multiplicity
 _atom_site_fract_x
 _atom_site_fract_y
 _atom_site_fract_z
 _atom_site_occupancy
  Li  Li0  1  0.326897  0.663579  0.895014  1
  Li  Li1  1  0.019284  0.009315  0.994607  1
  Li  Li2  1  0.009510  0.004128  0.494748  1
  Li  Li3  1  0.666554  0.333749  0.395642  1
  Mn  Mn4  1  0.326640  0.662995  0.486577  1
  Mn  Mn5  1  0.662927  0.331661  0.988860  1
  V  V6  1  0.822658  0.660312  0.714548  1
  V  V7  1  0.664658  0.834680  0.209160  1
  V  V8  1  0.823884  0.162668  0.714125  1
  Cr  Cr9  1  0.172202  0.831588  0.215661  1
  Cr  Cr10  1  0.172667  0.340888  0.215889  1
  Cr  Cr11  1  0.337862  0.168299  0.711915  1
  O  O12  1  0.157127  0.829157  0.602674  1
  O  O13  1  0.027788  0.514885  0.332557  1
  O  O14  1  0.361003  0.680159  0.104935  1
  O  O15  1  0.982312  0.991630  0.310309  1
  O  O16  1  0.987426  0.993377  0.810777  1
  O  O17  1  0.155643  0.324773  0.603531  1
  O  O18  1  0.485774  0.957345  0.336946  1
  O  O19  1  0.484086  0.529236  0.338952  1
  O  O20  1  0.332468  0.166139  0.098035  1
  O  O21  1  0.685481  0.842093  0.605892  1
  O  O22  1  0.518899  0.484735  0.833389  1
  O  O23  1  0.519273  0.034469  0.833657  1
  O  O24  1  0.680832  0.340169  0.603078  1
  O  O25  1  0.831740  0.683004  0.106578  1
  O  O26  1  0.952225  0.476382  0.843419  1
  O  O27  1  0.832179  0.148882  0.106362  1
