# generated using pymatgen
data_LiMn2F6
_symmetry_space_group_name_H-M   'P 1'
_cell_length_a   9.65170182
_cell_length_b   4.75630805
_cell_length_c   4.76292991
_cell_angle_alpha   90.00000000
_cell_angle_beta   88.33691933
_cell_angle_gamma   90.00000000
_symmetry_Int_Tables_number   1
_chemical_formula_structural   LiMn2F6
_chemical_formula_sum   'Li2 Mn4 F12'
_cell_volume   218.55718308
_cell_formula_units_Z   2
loop_
 _symmetry_equiv_pos_site_id
 _symmetry_equiv_pos_as_xyz
  1  'x, y, z'
loop_
 _atom_site_type_symbol
 _atom_site_label
 _atom_site_symmetry_multiplicity
 _atom_site_fract_x
 _atom_site_fract_y
 _atom_site_fract_z
 _atom_site_occupancy
  Li  Li0  1  0.000000  0.000000  0.000000  1
  Li  Li1  1  0.500000  0.500000  0.500000  1
  Mn  Mn2  1  0.165966  0.500398  0.503838  1
  Mn  Mn3  1  0.334034  0.000398  0.996162  1
  Mn  Mn4  1  0.665966  0.999602  0.003838  1
  Mn  Mn5  1  0.834034  0.499602  0.496162  1
  F  F6  1  0.004710  0.696256  0.698250  1
  F  F7  1  0.166755  0.200131  0.795932  1
  F  F8  1  0.177184  0.797009  0.204569  1
  F  F9  1  0.333245  0.700131  0.704068  1
  F  F10  1  0.322816  0.297009  0.295431  1
  F  F11  1  0.495290  0.196256  0.801750  1
  F  F12  1  0.504710  0.803744  0.198250  1
  F  F13  1  0.677184  0.702991  0.704569  1
  F  F14  1  0.666755  0.299869  0.295932  1
  F  F15  1  0.822816  0.202991  0.795431  1
  F  F16  1  0.833245  0.799869  0.204068  1
  F  F17  1  0.995290  0.303744  0.301750  1
