# generated using pymatgen
data_Li2TiFe2O5
_symmetry_space_group_name_H-M   'P 1'
_cell_length_a   5.30278792
_cell_length_b   7.90410011
_cell_length_c   5.29868597
_cell_angle_alpha   69.92264760
_cell_angle_beta   112.37198042
_cell_angle_gamma   96.91892018
_symmetry_Int_Tables_number   1
_chemical_formula_structural   Li2TiFe2O5
_chemical_formula_sum   'Li4 Ti2 Fe4 O10'
_cell_volume   192.87810053
_cell_formula_units_Z   2
loop_
 _symmetry_equiv_pos_site_id
 _symmetry_equiv_pos_as_xyz
  1  'x, y, z'
loop_
 _atom_site_type_symbol
 _atom_site_label
 _atom_site_symmetry_multiplicity
 _atom_site_fract_x
 _atom_site_fract_y
 _atom_site_fract_z
 _atom_site_occupancy
  Li  Li0  1  0.488365  0.597793  0.706906  1
  Li  Li1  1  0.502916  0.397051  0.298851  1
  Li  Li2  1  0.991153  0.202072  0.410817  1
  Li  Li3  1  0.002933  0.004013  0.995595  1
  Ti  Ti4  1  0.508121  0.198929  0.894848  1
  Ti  Ti5  1  0.006146  0.589107  0.200295  1
  Fe  Fe6  1  0.999522  0.392810  0.813027  1
  Fe  Fe7  1  0.003345  0.810974  0.596144  1
  Fe  Fe8  1  0.502737  0.799596  0.106248  1
  Fe  Fe9  1  0.494113  0.997733  0.497740  1
  O  O10  1  0.747078  0.789686  0.862296  1
  O  O11  1  0.231240  0.598221  0.978151  1
  O  O12  1  0.720402  0.200897  0.669867  1
  O  O13  1  0.791998  0.601278  0.438306  1
  O  O14  1  0.242466  0.783870  0.337209  1
  O  O15  1  0.252805  0.014759  0.744694  1
  O  O16  1  0.246490  0.400356  0.543535  1
  O  O17  1  0.743357  0.019032  0.233434  1
  O  O18  1  0.748300  0.402783  0.051263  1
  O  O19  1  0.276511  0.199041  0.120775  1
