# generated using pymatgen
data_Li2VO3F
_symmetry_space_group_name_H-M   'P 1'
_cell_length_a   5.05047942
_cell_length_b   5.79558103
_cell_length_c   5.21350931
_cell_angle_alpha   91.05051467
_cell_angle_beta   111.69033995
_cell_angle_gamma   91.29623440
_symmetry_Int_Tables_number   1
_chemical_formula_structural   Li2VO3F
_chemical_formula_sum   'Li4 V2 O6 F2'
_cell_volume   141.70201311
_cell_formula_units_Z   2
loop_
 _symmetry_equiv_pos_site_id
 _symmetry_equiv_pos_as_xyz
  1  'x, y, z'
loop_
 _atom_site_type_symbol
 _atom_site_label
 _atom_site_symmetry_multiplicity
 _atom_site_fract_x
 _atom_site_fract_y
 _atom_site_fract_z
 _atom_site_occupancy
  Li  Li0  1  0.193718  0.125366  0.518218  1
  Li  Li1  1  0.243367  0.625004  0.516250  1
  Li  Li2  1  0.730625  0.393703  0.480125  1
  Li  Li3  1  0.764495  0.621432  0.994826  1
  V  V4  1  0.299531  0.864555  0.068355  1
  V  V5  1  0.730281  0.127361  0.932379  1
  O  O6  1  0.027283  0.889175  0.212351  1
  O  O7  1  0.482281  0.885477  0.781234  1
  O  O8  1  0.530302  0.351480  0.749649  1
  O  O9  1  0.485777  0.641712  0.245352  1
  O  O10  1  0.525787  0.105497  0.213531  1
  O  O11  1  0.976823  0.111881  0.776706  1
  F  F12  1  0.025625  0.642100  0.762511  1
  F  F13  1  0.968827  0.362040  0.253149  1
