# generated using pymatgen
data_Li10V3Cr5O16
_symmetry_space_group_name_H-M   'P 1'
_cell_length_a   6.05197387
_cell_length_b   6.01278467
_cell_length_c   9.85111271
_cell_angle_alpha   89.82590590
_cell_angle_beta   90.00003649
_cell_angle_gamma   58.97752645
_symmetry_Int_Tables_number   1
_chemical_formula_structural   Li10V3Cr5O16
_chemical_formula_sum   'Li10 V3 Cr5 O16'
_cell_volume   307.19804523
_cell_formula_units_Z   1
loop_
 _symmetry_equiv_pos_site_id
 _symmetry_equiv_pos_as_xyz
  1  'x, y, z'
loop_
 _atom_site_type_symbol
 _atom_site_label
 _atom_site_symmetry_multiplicity
 _atom_site_fract_x
 _atom_site_fract_y
 _atom_site_fract_z
 _atom_site_occupancy
  Li  Li0  1  0.021026  0.991023  0.987657  1
  Li  Li1  1  0.355379  0.321078  0.774231  1
  Li  Li2  1  0.625477  0.176935  0.558680  1
  Li  Li3  1  0.215322  0.190670  0.554385  1
  Li  Li4  1  0.196610  0.611543  0.560502  1
  Li  Li5  1  0.816015  0.386591  0.058055  1
  Li  Li6  1  0.680114  0.683074  0.275197  1
  Li  Li7  1  0.413051  0.805571  0.052349  1
  Li  Li8  1  0.809996  0.814509  0.057880  1
  Li  Li9  1  0.015585  0.009659  0.485946  1
  V  V10  1  0.663885  0.187496  0.289040  1
  V  V11  1  0.188077  0.663852  0.288353  1
  V  V12  1  0.849485  0.824101  0.788942  1
  Cr  Cr13  1  0.177701  0.176401  0.286141  1
  Cr  Cr14  1  0.348283  0.337189  0.027134  1
  Cr  Cr15  1  0.849603  0.329508  0.786644  1
  Cr  Cr16  1  0.682909  0.667218  0.528743  1
  Cr  Cr17  1  0.356010  0.822901  0.785772  1
  O  O18  1  0.183933  0.155875  0.905580  1
  O  O19  1  0.493658  0.026868  0.162226  1
  O  O20  1  0.686943  0.167826  0.913202  1
  O  O21  1  0.337712  0.333022  0.407780  1
  O  O22  1  0.031705  0.491348  0.159841  1
  O  O23  1  0.496431  0.496200  0.155108  1
  O  O24  1  0.850845  0.343311  0.406174  1
  O  O25  1  0.195226  0.661352  0.907878  1
  O  O26  1  0.530087  0.503455  0.661864  1
  O  O27  1  0.347538  0.847080  0.408730  1
  O  O28  1  0.991815  0.495149  0.661079  1
  O  O29  1  0.678097  0.653758  0.902862  1
  O  O30  1  0.517469  0.972227  0.662453  1
  O  O31  1  0.846588  0.844664  0.416384  1
  O  O32  1  0.023618  0.997772  0.675758  1
  O  O33  1  0.009650  0.014719  0.177741  1
