# generated using pymatgen
data_LiFePO4
_symmetry_space_group_name_H-M   'P 1'
_cell_length_a   10.18542334
_cell_length_b   13.73501574
_cell_length_c   5.11029293
_cell_angle_alpha   90.00000000
_cell_angle_beta   90.00000000
_cell_angle_gamma   90.00000000
_symmetry_Int_Tables_number   1
_chemical_formula_structural   LiFePO4
_chemical_formula_sum   'Li8 Fe8 P8 O32'
_cell_volume   714.91439397
_cell_formula_units_Z   8
loop_
 _symmetry_equiv_pos_site_id
 _symmetry_equiv_pos_as_xyz
  1  'x, y, z'
loop_
 _atom_site_type_symbol
 _atom_site_label
 _atom_site_symmetry_multiplicity
 _atom_site_fract_x
 _atom_site_fract_y
 _atom_site_fract_z
 _atom_site_occupancy
  Li  Li0  1  0.030647  0.502296  0.928662  1
  Li  Li1  1  0.220447  0.750184  0.549088  1
  Li  Li2  1  0.279553  0.250184  0.549088  1
  Li  Li3  1  0.469353  0.002296  0.928662  1
  Li  Li4  1  0.530647  0.502296  0.071338  1
  Li  Li5  1  0.720447  0.750184  0.450912  1
  Li  Li6  1  0.779553  0.250184  0.450912  1
  Li  Li7  1  0.969353  0.002296  0.071338  1
  Fe  Fe8  1  0.034048  0.752615  0.059353  1
  Fe  Fe9  1  0.215031  0.000725  0.555920  1
  Fe  Fe10  1  0.284969  0.500725  0.555920  1
  Fe  Fe11  1  0.465952  0.252615  0.059353  1
  Fe  Fe12  1  0.534048  0.752615  0.940647  1
  Fe  Fe13  1  0.715031  0.000725  0.444080  1
  Fe  Fe14  1  0.784969  0.500725  0.444080  1
  Fe  Fe15  1  0.965952  0.252615  0.940647  1
  P  P16  1  0.032055  0.376322  0.434092  1
  P  P17  1  0.216150  0.127674  0.049524  1
  P  P18  1  0.283850  0.627674  0.049524  1
  P  P19  1  0.467945  0.876322  0.434092  1
  P  P20  1  0.532055  0.376322  0.565908  1
  P  P21  1  0.716150  0.127674  0.950476  1
  P  P22  1  0.783850  0.627674  0.950476  1
  P  P23  1  0.967945  0.876322  0.565908  1
  O  O24  1  0.000409  0.879576  0.864686  1
  O  O25  1  0.972382  0.469009  0.563374  1
  O  O26  1  0.032665  0.782976  0.450875  1
  O  O27  1  0.066419  0.126396  0.989147  1
  O  O28  1  0.182034  0.375038  0.487370  1
  O  O29  1  0.221805  0.534885  0.924681  1
  O  O30  1  0.278373  0.220933  0.931422  1
  O  O31  1  0.241969  0.126973  0.350211  1
  O  O32  1  0.258031  0.626973  0.350211  1
  O  O33  1  0.221627  0.720933  0.931422  1
  O  O34  1  0.278195  0.034885  0.924681  1
  O  O35  1  0.317966  0.875038  0.487370  1
  O  O36  1  0.433581  0.626396  0.989147  1
  O  O37  1  0.467335  0.282976  0.450875  1
  O  O38  1  0.527618  0.969009  0.563374  1
  O  O39  1  0.499591  0.379576  0.864686  1
  O  O40  1  0.500409  0.879576  0.135314  1
  O  O41  1  0.472382  0.469009  0.436626  1
  O  O42  1  0.532665  0.782976  0.549125  1
  O  O43  1  0.566419  0.126396  0.010853  1
  O  O44  1  0.682034  0.375038  0.512630  1
  O  O45  1  0.721805  0.534885  0.075319  1
  O  O46  1  0.778373  0.220933  0.068578  1
  O  O47  1  0.741969  0.126973  0.649789  1
  O  O48  1  0.758031  0.626973  0.649789  1
  O  O49  1  0.721627  0.720933  0.068578  1
  O  O50  1  0.778195  0.034885  0.075319  1
  O  O51  1  0.817966  0.875038  0.512630  1
  O  O52  1  0.933581  0.626396  0.010853  1
  O  O53  1  0.967335  0.282976  0.549125  1
  O  O54  1  0.027618  0.969009  0.436626  1
  O  O55  1  0.999591  0.379576  0.135314  1
