# generated using pymatgen
data_Li4CrNi3(PO4)4
_symmetry_space_group_name_H-M   'P 1'
_cell_length_a   4.74221199
_cell_length_b   10.16160082
_cell_length_c   6.03890092
_cell_angle_alpha   90.00000000
_cell_angle_beta   90.00000000
_cell_angle_gamma   90.49263119
_symmetry_Int_Tables_number   1
_chemical_formula_structural   Li4CrNi3(PO4)4
_chemical_formula_sum   'Li4 Cr1 Ni3 P4 O16'
_cell_volume   290.99461098
_cell_formula_units_Z   1
loop_
 _symmetry_equiv_pos_site_id
 _symmetry_equiv_pos_as_xyz
  1  'x, y, z'
loop_
 _atom_site_type_symbol
 _atom_site_label
 _atom_site_symmetry_multiplicity
 _atom_site_fract_x
 _atom_site_fract_y
 _atom_site_fract_z
 _atom_site_occupancy
  Li  Li0  1  0.006046  0.997837  0.997741  1
  Li  Li1  1  0.006046  0.997837  0.502259  1
  Li  Li2  1  0.498338  0.502239  0.503839  1
  Li  Li3  1  0.498338  0.502239  0.996161  1
  Cr  Cr4  1  0.958402  0.281052  0.250000  1
  Ni  Ni5  1  0.018684  0.724106  0.750000  1
  Ni  Ni6  1  0.480652  0.223034  0.750000  1
  Ni  Ni7  1  0.520140  0.776517  0.250000  1
  P  P8  1  0.082085  0.595077  0.250000  1
  P  P9  1  0.417676  0.093587  0.250000  1
  P  P10  1  0.585332  0.905875  0.750000  1
  P  P11  1  0.915681  0.407210  0.750000  1
  O  O12  1  0.197893  0.452287  0.250000  1
  O  O13  1  0.222201  0.665207  0.044810  1
  O  O14  1  0.222201  0.665207  0.455190  1
  O  O15  1  0.239449  0.401477  0.750000  1
  O  O16  1  0.261158  0.899149  0.750000  1
  O  O17  1  0.285184  0.161091  0.041833  1
  O  O18  1  0.285184  0.161091  0.458167  1
  O  O19  1  0.302382  0.949261  0.250000  1
  O  O20  1  0.704105  0.048631  0.750000  1
  O  O21  1  0.724343  0.834031  0.545823  1
  O  O22  1  0.724343  0.834031  0.954177  1
  O  O23  1  0.742776  0.100947  0.250000  1
  O  O24  1  0.757866  0.599090  0.250000  1
  O  O25  1  0.771272  0.335762  0.550361  1
  O  O26  1  0.771272  0.335762  0.949639  1
  O  O27  1  0.800954  0.550369  0.750000  1
