# generated using pymatgen
data_Li2MnSiO4
_symmetry_space_group_name_H-M   'P 1'
_cell_length_a   11.03729988
_cell_length_b   5.16775370
_cell_length_c   6.40281017
_cell_angle_alpha   90.00000000
_cell_angle_beta   90.00000000
_cell_angle_gamma   90.00000000
_symmetry_Int_Tables_number   1
_chemical_formula_structural   Li2MnSiO4
_chemical_formula_sum   'Li8 Mn4 Si4 O16'
_cell_volume   365.20378928
_cell_formula_units_Z   4
loop_
 _symmetry_equiv_pos_site_id
 _symmetry_equiv_pos_as_xyz
  1  'x, y, z'
loop_
 _atom_site_type_symbol
 _atom_site_label
 _atom_site_symmetry_multiplicity
 _atom_site_fract_x
 _atom_site_fract_y
 _atom_site_fract_z
 _atom_site_occupancy
  Li  Li0  1  0.075370  0.777835  0.868463  1
  Li  Li1  1  0.159882  0.183998  0.119081  1
  Li  Li2  1  0.340118  0.683998  0.619081  1
  Li  Li3  1  0.424630  0.277835  0.368463  1
  Li  Li4  1  0.575370  0.722165  0.868463  1
  Li  Li5  1  0.659882  0.316002  0.119081  1
  Li  Li6  1  0.840118  0.816002  0.619081  1
  Li  Li7  1  0.924630  0.222165  0.368463  1
  Mn  Mn8  1  0.167694  0.187848  0.616628  1
  Mn  Mn9  1  0.332306  0.687848  0.116628  1
  Mn  Mn10  1  0.667694  0.312152  0.616628  1
  Mn  Mn11  1  0.832306  0.812152  0.116628  1
  Si  Si12  1  0.085595  0.683823  0.368007  1
  Si  Si13  1  0.414405  0.183823  0.868007  1
  Si  Si14  1  0.585595  0.816177  0.368007  1
  Si  Si15  1  0.914405  0.316177  0.868007  1
  O  O16  1  0.055150  0.210182  0.873122  1
  O  O17  1  0.089002  0.364390  0.361964  1
  O  O18  1  0.160316  0.780866  0.580524  1
  O  O19  1  0.153683  0.795173  0.154310  1
  O  O20  1  0.346317  0.295173  0.654310  1
  O  O21  1  0.339684  0.280866  0.080524  1
  O  O22  1  0.410998  0.864390  0.861964  1
  O  O23  1  0.444850  0.710182  0.373122  1
  O  O24  1  0.555150  0.289818  0.873122  1
  O  O25  1  0.589002  0.135610  0.361964  1
  O  O26  1  0.660316  0.719134  0.580524  1
  O  O27  1  0.653683  0.704827  0.154310  1
  O  O28  1  0.846317  0.204827  0.654310  1
  O  O29  1  0.839684  0.219134  0.080524  1
  O  O30  1  0.910998  0.635610  0.861964  1
  O  O31  1  0.944850  0.789818  0.373122  1
