# generated using pymatgen
data_LiMn2(BO3)2
_symmetry_space_group_name_H-M   'P 1'
_cell_length_a   9.07026909
_cell_length_b   9.19252555
_cell_length_c   11.47528159
_cell_angle_alpha   90.48733429
_cell_angle_beta   68.32245297
_cell_angle_gamma   59.74096925
_symmetry_Int_Tables_number   1
_chemical_formula_structural   LiMn2(BO3)2
_chemical_formula_sum   'Li6 Mn12 B12 O36'
_cell_volume   745.06683734
_cell_formula_units_Z   6
loop_
 _symmetry_equiv_pos_site_id
 _symmetry_equiv_pos_as_xyz
  1  'x, y, z'
loop_
 _atom_site_type_symbol
 _atom_site_label
 _atom_site_symmetry_multiplicity
 _atom_site_fract_x
 _atom_site_fract_y
 _atom_site_fract_z
 _atom_site_occupancy
  Li  Li0  1  0.301375  0.359074  0.915672  1
  Li  Li1  1  0.613166  0.176188  0.407098  1
  Li  Li2  1  0.348947  0.806972  0.651592  1
  Li  Li3  1  0.638189  0.685131  0.176912  1
  Li  Li4  1  0.978474  0.021293  0.169798  1
  Li  Li5  1  0.958404  0.509063  0.677728  1
  Mn  Mn6  1  0.057465  0.321400  0.143869  1
  Mn  Mn7  1  0.018983  0.127099  0.629782  1
  Mn  Mn8  1  0.269120  0.179880  0.377080  1
  Mn  Mn9  1  0.344608  0.627439  0.125784  1
  Mn  Mn10  1  0.652003  0.023580  0.129900  1
  Mn  Mn11  1  0.361979  0.471082  0.631571  1
  Mn  Mn12  1  0.654818  0.505844  0.383136  1
  Mn  Mn13  1  0.292936  0.002604  0.888130  1
  Mn  Mn14  1  0.673582  0.369078  0.875211  1
  Mn  Mn15  1  0.660608  0.880999  0.626843  1
  Mn  Mn16  1  0.994361  0.845296  0.385254  1
  Mn  Mn17  1  0.957442  0.696578  0.882806  1
  B  B18  1  0.028414  0.666838  0.114364  1
  B  B19  1  0.350893  0.147462  0.604417  1
  B  B20  1  0.025579  0.804881  0.639375  1
  B  B21  1  0.337446  0.483152  0.358655  1
  B  B22  1  0.332856  0.971979  0.139954  1
  B  B23  1  0.705072  0.333892  0.135385  1
  B  B24  1  0.311020  0.657765  0.870314  1
  B  B25  1  0.630531  0.040942  0.868658  1
  B  B26  1  0.964053  0.176181  0.379573  1
  B  B27  1  0.689283  0.514535  0.633609  1
  B  B28  1  0.639931  0.858215  0.376115  1
  B  B29  1  0.994954  0.338834  0.875582  1
  O  O30  1  0.192743  0.047932  0.094820  1
  O  O31  1  0.106325  0.088906  0.421506  1
  O  O32  1  0.133334  0.494939  0.104889  1
  O  O33  1  0.366040  0.091523  0.187300  1
  O  O34  1  0.073574  0.775115  0.161272  1
  O  O35  1  0.197878  0.227312  0.569233  1
  O  O36  1  0.278855  0.378333  0.345992  1
  O  O37  1  0.126927  0.270257  0.925142  1
  O  O38  1  0.054239  0.658820  0.691299  1
  O  O39  1  0.572300  0.010695  0.333161  1
  O  O40  1  0.278169  0.632131  0.308975  1
  O  O41  1  0.599696  0.416168  0.065176  1
  O  O42  1  0.454682  0.215658  0.598756  1
  O  O43  1  0.129725  0.872060  0.631561  1
  O  O44  1  0.454002  0.449754  0.420683  1
  O  O45  1  0.428650  0.802226  0.136235  1
  O  O46  1  0.246330  0.560084  0.839385  1
  O  O47  1  0.758188  0.171489  0.145917  1
  O  O48  1  0.747771  0.436030  0.192076  1
  O  O49  1  0.569466  0.209665  0.875910  1
  O  O50  1  0.276324  0.805256  0.833842  1
  O  O51  1  0.566402  0.543234  0.573494  1
  O  O52  1  0.874150  0.100304  0.364821  1
  O  O53  1  0.601445  0.738712  0.353834  1
  O  O54  1  0.423917  0.589469  0.937869  1
  O  O55  1  0.395866  0.992461  0.644519  1
  O  O56  1  0.741646  0.368897  0.688817  1
  O  O57  1  0.927691  0.334146  0.350840  1
  O  O58  1  0.881643  0.744622  0.073871  1
  O  O59  1  0.746063  0.622089  0.638680  1
  O  O60  1  0.754449  0.831840  0.439247  1
  O  O61  1  0.566227  0.960656  0.813127  1
  O  O62  1  0.940632  0.231683  0.837592  1
  O  O63  1  0.914632  0.503520  0.859555  1
  O  O64  1  0.893491  0.873259  0.589241  1
  O  O65  1  0.749572  0.942707  0.926064  1
