# generated using pymatgen
data_NbCr3(PO4)6
_symmetry_space_group_name_H-M   'P 1'
_cell_length_a   8.84855836
_cell_length_b   8.84855792
_cell_length_c   8.84855834
_cell_angle_alpha   58.37571975
_cell_angle_beta   58.37572208
_cell_angle_gamma   58.37572286
_symmetry_Int_Tables_number   1
_chemical_formula_structural   NbCr3(PO4)6
_chemical_formula_sum   'Nb1 Cr3 P6 O24'
_cell_volume   471.67894081
_cell_formula_units_Z   1
loop_
 _symmetry_equiv_pos_site_id
 _symmetry_equiv_pos_as_xyz
  1  'x, y, z'
loop_
 _atom_site_type_symbol
 _atom_site_label
 _atom_site_symmetry_multiplicity
 _atom_site_fract_x
 _atom_site_fract_y
 _atom_site_fract_z
 _atom_site_occupancy
  Nb  Nb0  1  0.860561  0.860561  0.860561  1
  Cr  Cr1  1  0.143291  0.143291  0.143291  1
  Cr  Cr2  1  0.357219  0.357219  0.357219  1
  Cr  Cr3  1  0.642876  0.642876  0.642876  1
  P  P4  1  0.035975  0.749856  0.460275  1
  P  P5  1  0.460275  0.035975  0.749856  1
  P  P6  1  0.749856  0.460275  0.035975  1
  P  P7  1  0.259501  0.526201  0.967303  1
  P  P8  1  0.526201  0.967303  0.259501  1
  P  P9  1  0.967303  0.259501  0.526201  1
  O  O10  1  0.138239  0.282682  0.504160  1
  O  O11  1  0.282682  0.504160  0.138239  1
  O  O12  1  0.064668  0.921859  0.279784  1
  O  O13  1  0.504160  0.138239  0.282682  1
  O  O14  1  0.217148  0.577535  0.434047  1
  O  O15  1  0.006373  0.778684  0.633492  1
  O  O16  1  0.279784  0.064668  0.921859  1
  O  O17  1  0.434047  0.217148  0.577535  1
  O  O18  1  0.577535  0.434047  0.217148  1
  O  O19  1  0.223829  0.361235  0.993322  1
  O  O20  1  0.083297  0.708877  0.940023  1
  O  O21  1  0.361235  0.993322  0.223829  1
  O  O22  1  0.633492  0.006373  0.778684  1
  O  O23  1  0.921859  0.279784  0.064668  1
  O  O24  1  0.778684  0.633492  0.006373  1
  O  O25  1  0.428431  0.557049  0.786293  1
  O  O26  1  0.557049  0.786293  0.428431  1
  O  O27  1  0.708877  0.940023  0.083297  1
  O  O28  1  0.993322  0.223829  0.361235  1
  O  O29  1  0.786293  0.428431  0.557049  1
  O  O30  1  0.490121  0.864624  0.721167  1
  O  O31  1  0.940023  0.083297  0.708877  1
  O  O32  1  0.721167  0.490121  0.864624  1
  O  O33  1  0.864624  0.721167  0.490121  1
