# generated using pymatgen
data_Li5Mn8(BO3)8
_symmetry_space_group_name_H-M   'P 1'
_cell_length_a   5.25554894
_cell_length_b   9.17346963
_cell_length_c   10.48408878
_cell_angle_alpha   90.36065156
_cell_angle_beta   91.40198191
_cell_angle_gamma   88.88647241
_symmetry_Int_Tables_number   1
_chemical_formula_structural   Li5Mn8(BO3)8
_chemical_formula_sum   'Li5 Mn8 B8 O24'
_cell_volume   505.19959120
_cell_formula_units_Z   1
loop_
 _symmetry_equiv_pos_site_id
 _symmetry_equiv_pos_as_xyz
  1  'x, y, z'
loop_
 _atom_site_type_symbol
 _atom_site_label
 _atom_site_symmetry_multiplicity
 _atom_site_fract_x
 _atom_site_fract_y
 _atom_site_fract_z
 _atom_site_occupancy
  Li  Li0  1  0.928629  0.929065  0.345378  1
  Li  Li1  1  0.072772  0.988653  0.730330  1
  Li  Li2  1  0.575381  0.583375  0.097323  1
  Li  Li3  1  0.443746  0.415367  0.332334  1
  Li  Li4  1  0.389312  0.428247  0.834448  1
  Mn  Mn5  1  0.911873  0.260971  0.375588  1
  Mn  Mn6  1  0.892201  0.598597  0.870058  1
  Mn  Mn7  1  0.566851  0.911087  0.129174  1
  Mn  Mn8  1  0.553941  0.246716  0.616320  1
  Mn  Mn9  1  0.437889  0.748493  0.376275  1
  Mn  Mn10  1  0.473011  0.088087  0.876812  1
  Mn  Mn11  1  0.087770  0.403970  0.114063  1
  Mn  Mn12  1  0.091182  0.721023  0.617437  1
  B  B13  1  0.931479  0.570386  0.377677  1
  B  B14  1  0.932122  0.256355  0.866428  1
  B  B15  1  0.614897  0.249523  0.127767  1
  B  B16  1  0.572360  0.912460  0.631496  1
  B  B17  1  0.409753  0.086806  0.372834  1
  B  B18  1  0.383467  0.752290  0.874337  1
  B  B19  1  0.075118  0.734601  0.140630  1
  B  B20  1  0.047941  0.420382  0.623055  1
  O  O21  1  0.934922  0.852809  0.175018  1
  O  O22  1  0.916082  0.309050  0.558338  1
  O  O23  1  0.958885  0.617367  0.076371  1
  O  O24  1  0.907229  0.545245  0.660979  1
  O  O25  1  0.855063  0.238197  0.190000  1
  O  O26  1  0.826897  0.899867  0.624443  1
  O  O27  1  0.675458  0.568330  0.364298  1
  O  O28  1  0.666834  0.263884  0.830575  1
  O  O29  1  0.550632  0.966077  0.333052  1
  O  O30  1  0.481863  0.879343  0.927192  1
  O  O31  1  0.540524  0.215928  0.407116  1
  O  O32  1  0.500493  0.619755  0.897332  1
  O  O33  1  0.476842  0.377032  0.136790  1
  O  O34  1  0.410998  0.811907  0.573601  1
  O  O35  1  0.533484  0.127844  0.059505  1
  O  O36  1  0.450473  0.034096  0.691992  1
  O  O37  1  0.336927  0.724677  0.172175  1
  O  O38  1  0.298893  0.409317  0.652824  1
  O  O39  1  0.153115  0.086121  0.383226  1
  O  O40  1  0.153517  0.763088  0.802497  1
  O  O41  1  0.082969  0.451668  0.336786  1
  O  O42  1  0.038312  0.385320  0.911796  1
  O  O43  1  0.058872  0.691403  0.430829  1
  O  O44  1  0.072380  0.132428  0.856217  1
