# generated using pymatgen
data_MnFe(PO4)2
_symmetry_space_group_name_H-M   'P 1'
_cell_length_a   9.89005596
_cell_length_b   5.98066472
_cell_length_c   4.91510138
_cell_angle_alpha   90.00000000
_cell_angle_beta   90.00000000
_cell_angle_gamma   90.00000000
_symmetry_Int_Tables_number   1
_chemical_formula_structural   MnFe(PO4)2
_chemical_formula_sum   'Mn2 Fe2 P4 O16'
_cell_volume   290.72386609
_cell_formula_units_Z   2
loop_
 _symmetry_equiv_pos_site_id
 _symmetry_equiv_pos_as_xyz
  1  'x, y, z'
loop_
 _atom_site_type_symbol
 _atom_site_label
 _atom_site_symmetry_multiplicity
 _atom_site_fract_x
 _atom_site_fract_y
 _atom_site_fract_z
 _atom_site_occupancy
  Mn  Mn0  1  0.218311  0.750000  0.438031  1
  Mn  Mn1  1  0.718311  0.750000  0.061969  1
  Fe  Fe2  1  0.275875  0.250000  0.963632  1
  Fe  Fe3  1  0.775875  0.250000  0.536368  1
  P  P4  1  0.097280  0.250000  0.416685  1
  P  P5  1  0.400463  0.750000  0.922448  1
  P  P6  1  0.597280  0.250000  0.083315  1
  P  P7  1  0.900463  0.750000  0.577552  1
  O  O8  1  0.053176  0.750000  0.639152  1
  O  O9  1  0.119732  0.250000  0.723607  1
  O  O10  1  0.173122  0.051683  0.269218  1
  O  O11  1  0.173122  0.448317  0.269218  1
  O  O12  1  0.329314  0.546306  0.783805  1
  O  O13  1  0.329314  0.953694  0.783805  1
  O  O14  1  0.382381  0.750000  0.235031  1
  O  O15  1  0.447611  0.250000  0.155168  1
  O  O16  1  0.553176  0.750000  0.860848  1
  O  O17  1  0.619732  0.250000  0.776393  1
  O  O18  1  0.673122  0.051683  0.230782  1
  O  O19  1  0.673122  0.448317  0.230782  1
  O  O20  1  0.829314  0.546306  0.716195  1
  O  O21  1  0.829314  0.953694  0.716195  1
  O  O22  1  0.882381  0.750000  0.264969  1
  O  O23  1  0.947611  0.250000  0.344832  1
