# generated using pymatgen
data_CrTe(WO6)2
_symmetry_space_group_name_H-M   'P 1'
_cell_length_a   5.33330341
_cell_length_b   10.65648743
_cell_length_c   9.33459996
_cell_angle_alpha   28.78724781
_cell_angle_beta   52.51153870
_cell_angle_gamma   57.69991320
_symmetry_Int_Tables_number   1
_chemical_formula_structural   CrTe(WO6)2
_chemical_formula_sum   'Cr1 Te1 W2 O12'
_cell_volume   202.71580365
_cell_formula_units_Z   1
loop_
 _symmetry_equiv_pos_site_id
 _symmetry_equiv_pos_as_xyz
  1  'x, y, z'
loop_
 _atom_site_type_symbol
 _atom_site_label
 _atom_site_symmetry_multiplicity
 _atom_site_fract_x
 _atom_site_fract_y
 _atom_site_fract_z
 _atom_site_occupancy
  Cr  Cr0  1  0.975474  0.001582  0.966671  1
  Te  Te1  1  0.998980  0.499767  0.004077  1
  W  W2  1  0.532960  0.987972  0.481227  1
  W  W3  1  0.442981  0.510300  0.492535  1
  O  O4  1  0.355205  0.300562  0.147052  1
  O  O5  1  0.232512  0.101998  0.655563  1
  O  O6  1  0.139333  0.294638  0.754635  1
  O  O7  1  0.849290  0.198939  0.253015  1
  O  O8  1  0.334237  0.808341  0.143244  1
  O  O9  1  0.755435  0.393492  0.360213  1
  O  O10  1  0.257583  0.598907  0.652056  1
  O  O11  1  0.663601  0.192448  0.851468  1
  O  O12  1  0.146146  0.803612  0.752035  1
  O  O13  1  0.855966  0.716672  0.227488  1
  O  O14  1  0.761279  0.893712  0.345538  1
  O  O15  1  0.644219  0.697057  0.858384  1
