# generated using pymatgen
data_Li3Co2(CO3)4
_symmetry_space_group_name_H-M   'P 1'
_cell_length_a   5.40339306
_cell_length_b   6.45054764
_cell_length_c   8.41144002
_cell_angle_alpha   81.35111511
_cell_angle_beta   72.75743351
_cell_angle_gamma   64.49959960
_symmetry_Int_Tables_number   1
_chemical_formula_structural   Li3Co2(CO3)4
_chemical_formula_sum   'Li3 Co2 C4 O12'
_cell_volume   252.63802876
_cell_formula_units_Z   1
loop_
 _symmetry_equiv_pos_site_id
 _symmetry_equiv_pos_as_xyz
  1  'x, y, z'
loop_
 _atom_site_type_symbol
 _atom_site_label
 _atom_site_symmetry_multiplicity
 _atom_site_fract_x
 _atom_site_fract_y
 _atom_site_fract_z
 _atom_site_occupancy
  Li  Li0  1  0.517331  0.954356  0.317695  1
  Li  Li1  1  0.791355  0.049835  0.672332  1
  Li  Li2  1  0.218581  0.543792  0.835678  1
  Co  Co3  1  0.131158  0.996682  0.003767  1
  Co  Co4  1  0.870141  0.507612  0.491316  1
  C  C5  1  0.046524  0.608732  0.207272  1
  C  C6  1  0.973827  0.114151  0.300230  1
  C  C7  1  0.391611  0.888001  0.697866  1
  C  C8  1  0.853917  0.391041  0.793062  1
  O  O9  1  0.157715  0.658912  0.059475  1
  O  O10  1  0.794123  0.609153  0.258084  1
  O  O11  1  0.799614  0.078031  0.244965  1
  O  O12  1  0.225025  0.073656  0.199580  1
  O  O13  1  0.913623  0.184403  0.450004  1
  O  O14  1  0.174646  0.553787  0.326587  1
  O  O15  1  0.545072  0.830202  0.547828  1
  O  O16  1  0.645974  0.392338  0.744839  1
  O  O17  1  0.484995  0.949290  0.800104  1
  O  O18  1  0.031889  0.459523  0.677588  1
  O  O19  1  0.140565  0.885900  0.754096  1
  O  O20  1  0.898377  0.330055  0.935448  1
