# generated using pymatgen
data_CoO2
_symmetry_space_group_name_H-M   'P 1'
_cell_length_a   5.62043124
_cell_length_b   5.59964575
_cell_length_c   8.55168467
_cell_angle_alpha   90.21268142
_cell_angle_beta   89.89404828
_cell_angle_gamma   119.87774015
_symmetry_Int_Tables_number   1
_chemical_formula_structural   CoO2
_chemical_formula_sum   'Co8 O16'
_cell_volume   233.36903606
_cell_formula_units_Z   8
loop_
 _symmetry_equiv_pos_site_id
 _symmetry_equiv_pos_as_xyz
  1  'x, y, z'
loop_
 _atom_site_type_symbol
 _atom_site_label
 _atom_site_symmetry_multiplicity
 _atom_site_fract_x
 _atom_site_fract_y
 _atom_site_fract_z
 _atom_site_occupancy
  Co  Co0  1  0.169405  0.830642  0.211095  1
  Co  Co1  1  0.333831  0.667843  0.485411  1
  Co  Co2  1  0.168601  0.333910  0.207753  1
  Co  Co3  1  0.666076  0.831434  0.207972  1
  Co  Co4  1  0.333924  0.165357  0.707972  1
  Co  Co5  1  0.666169  0.334012  0.985411  1
  Co  Co6  1  0.830595  0.661238  0.711095  1
  Co  Co7  1  0.831399  0.165307  0.707753  1
  O  O8  1  0.168386  0.837084  0.601973  1
  O  O9  1  0.040776  0.518859  0.340931  1
  O  O10  1  0.331937  0.668220  0.099035  1
  O  O11  1  0.002409  0.997820  0.318464  1
  O  O12  1  0.997591  0.995411  0.818464  1
  O  O13  1  0.167494  0.334579  0.604435  1
  O  O14  1  0.481044  0.959787  0.340871  1
  O  O15  1  0.477922  0.521336  0.338456  1
  O  O16  1  0.331132  0.168095  0.101463  1
  O  O17  1  0.668868  0.836962  0.601463  1
  O  O18  1  0.518957  0.478743  0.840871  1
  O  O19  1  0.522078  0.043412  0.838456  1
  O  O20  1  0.668063  0.336284  0.599034  1
  O  O21  1  0.831614  0.668697  0.101973  1
  O  O22  1  0.959224  0.478083  0.840931  1
  O  O23  1  0.832506  0.167085  0.104435  1
