# generated using pymatgen
data_K2LiTi2(AsO5)2
_symmetry_space_group_name_H-M   'P 1'
_cell_length_a   13.23673379
_cell_length_b   6.75601422
_cell_length_c   11.05571975
_cell_angle_alpha   90.00000000
_cell_angle_beta   90.00000000
_cell_angle_gamma   90.00000000
_symmetry_Int_Tables_number   1
_chemical_formula_structural   K2LiTi2(AsO5)2
_chemical_formula_sum   'K8 Li4 Ti8 As8 O40'
_cell_volume   988.68606021
_cell_formula_units_Z   4
loop_
 _symmetry_equiv_pos_site_id
 _symmetry_equiv_pos_as_xyz
  1  'x, y, z'
loop_
 _atom_site_type_symbol
 _atom_site_label
 _atom_site_symmetry_multiplicity
 _atom_site_fract_x
 _atom_site_fract_y
 _atom_site_fract_z
 _atom_site_occupancy
  K  K0  1  0.097127  0.616487  0.084686  1
  K  K1  1  0.137656  0.282448  0.788361  1
  K  K2  1  0.362344  0.782448  0.288361  1
  K  K3  1  0.402873  0.116487  0.584686  1
  K  K4  1  0.597127  0.883513  0.084686  1
  K  K5  1  0.637656  0.217552  0.788361  1
  K  K6  1  0.862344  0.717552  0.288361  1
  K  K7  1  0.902873  0.383513  0.584686  1
  Li  Li8  1  0.102802  0.040507  0.031300  1
  Li  Li9  1  0.397198  0.540507  0.531300  1
  Li  Li10  1  0.602802  0.459493  0.031300  1
  Li  Li11  1  0.897198  0.959493  0.531300  1
  Ti  Ti12  1  0.133526  0.006590  0.516355  1
  Ti  Ti13  1  0.248380  0.259382  0.267419  1
  Ti  Ti14  1  0.251620  0.759382  0.767419  1
  Ti  Ti15  1  0.366474  0.506590  0.016355  1
  Ti  Ti16  1  0.633526  0.493410  0.516355  1
  Ti  Ti17  1  0.748380  0.240618  0.267419  1
  Ti  Ti18  1  0.751620  0.740618  0.767419  1
  Ti  Ti19  1  0.866474  0.993410  0.016355  1
  As  As20  1  0.001966  0.833782  0.772231  1
  As  As21  1  0.181353  0.515229  0.514214  1
  As  As22  1  0.318647  0.015229  0.014214  1
  As  As23  1  0.498034  0.333782  0.272231  1
  As  As24  1  0.501966  0.666218  0.772231  1
  As  As25  1  0.681353  0.984771  0.514214  1
  As  As26  1  0.818647  0.484771  0.014214  1
  As  As27  1  0.998034  0.166218  0.272231  1
  O  O28  1  0.997177  0.031428  0.405544  1
  O  O29  1  0.003415  0.997602  0.652076  1
  O  O30  1  0.099058  0.325748  0.254323  1
  O  O31  1  0.101534  0.711537  0.487635  1
  O  O32  1  0.104209  0.675595  0.778401  1
  O  O33  1  0.108121  0.311291  0.549858  1
  O  O34  1  0.220857  0.060955  0.393949  1
  O  O35  1  0.218596  0.959613  0.644194  1
  O  O36  1  0.229941  0.051786  0.129992  1
  O  O37  1  0.232611  0.976095  0.897931  1
  O  O38  1  0.267388  0.476095  0.397931  1
  O  O39  1  0.270059  0.551786  0.629992  1
  O  O40  1  0.281404  0.459613  0.144194  1
  O  O41  1  0.279143  0.560956  0.893949  1
  O  O42  1  0.391879  0.811291  0.049858  1
  O  O43  1  0.395791  0.175595  0.278401  1
  O  O44  1  0.398466  0.211537  0.987635  1
  O  O45  1  0.400942  0.825747  0.754323  1
  O  O46  1  0.496585  0.497602  0.152077  1
  O  O47  1  0.502823  0.531428  0.905544  1
  O  O48  1  0.497177  0.468572  0.405544  1
  O  O49  1  0.503415  0.502398  0.652076  1
  O  O50  1  0.599058  0.174253  0.254323  1
  O  O51  1  0.601534  0.788463  0.487635  1
  O  O52  1  0.604209  0.824405  0.778401  1
  O  O53  1  0.608121  0.188709  0.549858  1
  O  O54  1  0.720857  0.439045  0.393949  1
  O  O55  1  0.718596  0.540387  0.644194  1
  O  O56  1  0.729941  0.448214  0.129992  1
  O  O57  1  0.732611  0.523905  0.897931  1
  O  O58  1  0.767389  0.023905  0.397931  1
  O  O59  1  0.770059  0.948214  0.629992  1
  O  O60  1  0.781404  0.040387  0.144194  1
  O  O61  1  0.779143  0.939044  0.893949  1
  O  O62  1  0.891879  0.688709  0.049858  1
  O  O63  1  0.895791  0.324405  0.278401  1
  O  O64  1  0.898466  0.288463  0.987635  1
  O  O65  1  0.900942  0.674253  0.754323  1
  O  O66  1  0.996585  0.002398  0.152077  1
  O  O67  1  0.002823  0.968572  0.905544  1
