# generated using pymatgen
data_LiMnH4(SO5)2
_symmetry_space_group_name_H-M   'P 1'
_cell_length_a   5.54271945
_cell_length_b   12.84485967
_cell_length_c   5.33400901
_cell_angle_alpha   90.00000000
_cell_angle_beta   100.46482742
_cell_angle_gamma   90.00000000
_symmetry_Int_Tables_number   1
_chemical_formula_structural   LiMnH4(SO5)2
_chemical_formula_sum   'Li2 Mn2 H8 S4 O20'
_cell_volume   373.44053458
_cell_formula_units_Z   2
loop_
 _symmetry_equiv_pos_site_id
 _symmetry_equiv_pos_as_xyz
  1  'x, y, z'
loop_
 _atom_site_type_symbol
 _atom_site_label
 _atom_site_symmetry_multiplicity
 _atom_site_fract_x
 _atom_site_fract_y
 _atom_site_fract_z
 _atom_site_occupancy
  Li  Li0  1  0.417466  0.616374  0.239510  1
  Li  Li1  1  0.582534  0.116374  0.260490  1
  Mn  Mn2  1  0.005147  0.497634  0.504944  1
  Mn  Mn3  1  0.994853  0.997634  0.995056  1
  H  H4  1  0.096982  0.703862  0.490007  1
  H  H5  1  0.087786  0.798682  0.991729  1
  H  H6  1  0.317957  0.650683  0.679761  1
  H  H7  1  0.313136  0.853320  0.176634  1
  H  H8  1  0.682043  0.150683  0.820239  1
  H  H9  1  0.686864  0.353320  0.323366  1
  H  H10  1  0.903018  0.203862  0.009993  1
  H  H11  1  0.912214  0.298682  0.508271  1
  S  S12  1  0.226122  0.115933  0.566913  1
  S  S13  1  0.228488  0.381021  0.068551  1
  S  S14  1  0.773878  0.615933  0.933087  1
  S  S15  1  0.771512  0.881021  0.431449  1
  O  O16  1  0.007243  0.673318  0.985238  1
  O  O17  1  0.001032  0.822377  0.475978  1
  O  O18  1  0.235184  0.458369  0.862105  1
  O  O19  1  0.197986  0.637713  0.516316  1
  O  O20  1  0.246531  0.059440  0.821851  1
  O  O21  1  0.239413  0.040790  0.355710  1
  O  O22  1  0.181419  0.865104  0.022304  1
  O  O23  1  0.248043  0.448706  0.314351  1
  O  O24  1  0.447204  0.181990  0.590325  1
  O  O25  1  0.552796  0.681990  0.909675  1
  O  O26  1  0.446448  0.314494  0.112011  1
  O  O27  1  0.553552  0.814494  0.387989  1
  O  O28  1  0.753469  0.559440  0.678149  1
  O  O29  1  0.802014  0.137713  0.983684  1
  O  O30  1  0.764816  0.958369  0.637895  1
  O  O31  1  0.751957  0.948706  0.185649  1
  O  O32  1  0.818581  0.365104  0.477696  1
  O  O33  1  0.760587  0.540790  0.144290  1
  O  O34  1  0.992757  0.173318  0.514762  1
  O  O35  1  0.998968  0.322377  0.024022  1
