# generated using pymatgen
data_Li4Fe2Co3Ni3O16
_symmetry_space_group_name_H-M   'P 1'
_cell_length_a   5.78121935
_cell_length_b   5.69493862
_cell_length_c   9.41408496
_cell_angle_alpha   89.95482476
_cell_angle_beta   91.42213441
_cell_angle_gamma   119.58005754
_symmetry_Int_Tables_number   1
_chemical_formula_structural   Li4Fe2Co3Ni3O16
_chemical_formula_sum   'Li4 Fe2 Co3 Ni3 O16'
_cell_volume   269.44365075
_cell_formula_units_Z   1
loop_
 _symmetry_equiv_pos_site_id
 _symmetry_equiv_pos_as_xyz
  1  'x, y, z'
loop_
 _atom_site_type_symbol
 _atom_site_label
 _atom_site_symmetry_multiplicity
 _atom_site_fract_x
 _atom_site_fract_y
 _atom_site_fract_z
 _atom_site_occupancy
  Li  Li0  1  0.324369  0.661716  0.894747  1
  Li  Li1  1  0.996385  -0.001789  0.995752  1
  Li  Li2  1  0.007602  0.003394  0.498155  1
  Li  Li3  1  0.667781  0.334616  0.395110  1
  Fe  Fe4  1  0.345784  0.673136  0.492263  1
  Fe  Fe5  1  0.663666  0.331532  0.986015  1
  Co  Co6  1  0.165805  0.829889  0.213008  1
  Co  Co7  1  0.165770  0.336308  0.213227  1
  Co  Co8  1  0.340280  0.169947  0.712927  1
  Ni  Ni9  1  0.658791  0.829725  0.213763  1
  Ni  Ni10  1  0.831657  0.662136  0.714673  1
  Ni  Ni11  1  0.831686  0.169302  0.714545  1
  O  O12  1  0.184402  0.853117  0.601297  1
  O  O13  1  0.037937  0.519240  0.329186  1
  O  O14  1  0.320985  0.660672  0.108485  1
  O  O15  1  0.005589  0.002790  0.309326  1
  O  O16  1  0.009519  0.004435  0.806291  1
  O  O17  1  0.184824  0.331561  0.601452  1
  O  O18  1  0.472597  0.962469  0.332131  1
  O  O19  1  0.473503  0.512200  0.331959  1
  O  O20  1  0.315920  0.157766  0.109502  1
  O  O21  1  0.687171  0.843641  0.600017  1
  O  O22  1  0.499694  0.468541  0.839030  1
  O  O23  1  0.499974  0.030694  0.838441  1
  O  O24  1  0.662638  0.331538  0.611994  1
  O  O25  1  0.843929  0.675075  0.104300  1
  O  O26  1  0.958968  0.478970  0.835781  1
  O  O27  1  0.842776  0.167677  0.104464  1
