# generated using pymatgen
data_LiMn(SO4)2
_symmetry_space_group_name_H-M   'P 1'
_cell_length_a   9.32866571
_cell_length_b   9.05003455
_cell_length_c   13.70708826
_cell_angle_alpha   90.00000000
_cell_angle_beta   90.41333676
_cell_angle_gamma   90.00000000
_symmetry_Int_Tables_number   1
_chemical_formula_structural   LiMn(SO4)2
_chemical_formula_sum   'Li8 Mn8 S16 O64'
_cell_volume   1157.18734538
_cell_formula_units_Z   8
loop_
 _symmetry_equiv_pos_site_id
 _symmetry_equiv_pos_as_xyz
  1  'x, y, z'
loop_
 _atom_site_type_symbol
 _atom_site_label
 _atom_site_symmetry_multiplicity
 _atom_site_fract_x
 _atom_site_fract_y
 _atom_site_fract_z
 _atom_site_occupancy
  Li  Li0  1  0.050299  0.210067  0.377291  1
  Li  Li1  1  0.050299  0.289933  0.877291  1
  Li  Li2  1  0.448207  0.713006  0.374571  1
  Li  Li3  1  0.448207  0.786994  0.874571  1
  Li  Li4  1  0.770878  0.451099  0.127448  1
  Li  Li5  1  0.770878  0.048901  0.627448  1
  Li  Li6  1  0.960683  0.775061  0.625007  1
  Li  Li7  1  0.960683  0.724939  0.125007  1
  Mn  Mn8  1  0.142162  0.104930  0.125634  1
  Mn  Mn9  1  0.142162  0.395070  0.625634  1
  Mn  Mn10  1  0.361991  0.607266  0.126343  1
  Mn  Mn11  1  0.361991  0.892734  0.626343  1
  Mn  Mn12  1  0.636941  0.106128  0.371307  1
  Mn  Mn13  1  0.636941  0.393872  0.871307  1
  Mn  Mn14  1  0.861392  0.605481  0.373830  1
  Mn  Mn15  1  0.861392  0.894519  0.873830  1
  S  S16  1  0.072887  0.064503  0.727479  1
  S  S17  1  0.072887  0.435497  0.227479  1
  S  S18  1  0.164968  0.686912  0.490399  1
  S  S19  1  0.164968  0.813088  0.990399  1
  S  S20  1  0.338992  0.186121  0.492685  1
  S  S21  1  0.338992  0.313879  0.992685  1
  S  S22  1  0.426919  0.934764  0.222763  1
  S  S23  1  0.426919  0.565236  0.722762  1
  S  S24  1  0.570271  0.434337  0.274026  1
  S  S25  1  0.570271  0.065663  0.774026  1
  S  S26  1  0.666116  0.689422  0.009852  1
  S  S27  1  0.666116  0.810578  0.509852  1
  S  S28  1  0.837006  0.186649  0.008512  1
  S  S29  1  0.837006  0.313351  0.508512  1
  S  S30  1  0.925912  0.563078  0.774199  1
  S  S31  1  0.925912  0.936922  0.274199  1
  O  O32  1  0.006417  0.705066  0.479208  1
  O  O33  1  0.006417  0.794934  0.979208  1
  O  O34  1  0.017175  0.998776  0.349771  1
  O  O35  1  0.017175  0.501224  0.849771  1
  O  O36  1  0.013775  0.467683  0.328863  1
  O  O37  1  0.013775  0.032317  0.828863  1
  O  O38  1  0.071908  0.230858  0.724422  1
  O  O39  1  0.071908  0.269142  0.224422  1
  O  O40  1  0.193859  0.724425  0.083380  1
  O  O41  1  0.193859  0.775575  0.583380  1
  O  O42  1  0.201871  0.969493  0.012071  1
  O  O43  1  0.201871  0.530507  0.512071  1
  O  O44  1  0.218852  0.007596  0.723396  1
  O  O45  1  0.218852  0.492404  0.223396  1
  O  O46  1  0.245008  0.738254  0.407331  1
  O  O47  1  0.245008  0.761746  0.907331  1
  O  O48  1  0.252948  0.230078  0.409083  1
  O  O49  1  0.252948  0.269922  0.909083  1
  O  O50  1  0.277252  0.988686  0.222225  1
  O  O51  1  0.277252  0.511314  0.722225  1
  O  O52  1  0.301974  0.028098  0.517533  1
  O  O53  1  0.301974  0.471902  0.017533  1
  O  O54  1  0.306550  0.223107  0.082909  1
  O  O55  1  0.306550  0.276892  0.582909  1
  O  O56  1  0.421831  0.764353  0.225160  1
  O  O57  1  0.421831  0.735647  0.725160  1
  O  O58  1  0.484482  0.534642  0.826706  1
  O  O59  1  0.484482  0.965358  0.326706  1
  O  O60  1  0.485475  0.502789  0.349367  1
  O  O61  1  0.485475  0.997211  0.849367  1
  O  O62  1  0.494123  0.201411  0.476707  1
  O  O63  1  0.494123  0.298589  0.976707  1
  O  O64  1  0.509061  0.707374  0.019642  1
  O  O65  1  0.509061  0.792626  0.519642  1
  O  O66  1  0.517313  0.508102  0.648030  1
  O  O67  1  0.517313  0.991898  0.148030  1
  O  O68  1  0.516300  0.471470  0.171448  1
  O  O69  1  0.516300  0.028530  0.671448  1
  O  O70  1  0.569897  0.270352  0.277689  1
  O  O71  1  0.569897  0.229648  0.777689  1
  O  O72  1  0.697363  0.724322  0.417273  1
  O  O73  1  0.697363  0.775678  0.917273  1
  O  O74  1  0.703026  0.530427  0.990340  1
  O  O75  1  0.703026  0.969573  0.490340  1
  O  O76  1  0.723034  0.488127  0.272285  1
  O  O77  1  0.723034  0.011873  0.772285  1
  O  O78  1  0.748451  0.735874  0.094689  1
  O  O79  1  0.748451  0.764126  0.594689  1
  O  O80  1  0.762218  0.242185  0.092894  1
  O  O81  1  0.762218  0.257815  0.592894  1
  O  O82  1  0.777020  0.509558  0.776677  1
  O  O83  1  0.777020  0.990442  0.276677  1
  O  O84  1  0.797313  0.469111  0.487473  1
  O  O85  1  0.797313  0.030889  0.987473  1
  O  O86  1  0.805904  0.223049  0.416214  1
  O  O87  1  0.805904  0.276951  0.916214  1
  O  O88  1  0.925949  0.731384  0.775088  1
  O  O89  1  0.925949  0.768616  0.275088  1
  O  O90  1  0.984208  0.531531  0.672108  1
  O  O91  1  0.984208  0.968469  0.172108  1
  O  O92  1  0.978243  0.000612  0.652014  1
  O  O93  1  0.978243  0.499388  0.152014  1
  O  O94  1  0.996479  0.201868  0.017736  1
  O  O95  1  0.996479  0.298132  0.517736  1
