# generated using pymatgen
data_Cr3Ni(PO4)6
_symmetry_space_group_name_H-M   'P 1'
_cell_length_a   8.79287109
_cell_length_b   8.79287107
_cell_length_c   8.79287084
_cell_angle_alpha   58.42366628
_cell_angle_beta   58.42366053
_cell_angle_gamma   58.42366292
_symmetry_Int_Tables_number   1
_chemical_formula_structural   Cr3Ni(PO4)6
_chemical_formula_sum   'Cr3 Ni1 P6 O24'
_cell_volume   463.36171011
_cell_formula_units_Z   1
loop_
 _symmetry_equiv_pos_site_id
 _symmetry_equiv_pos_as_xyz
  1  'x, y, z'
loop_
 _atom_site_type_symbol
 _atom_site_label
 _atom_site_symmetry_multiplicity
 _atom_site_fract_x
 _atom_site_fract_y
 _atom_site_fract_z
 _atom_site_occupancy
  Cr  Cr0  1  0.142402  0.142402  0.142402  1
  Cr  Cr1  1  0.357836  0.357836  0.357836  1
  Cr  Cr2  1  0.642669  0.642669  0.642669  1
  Ni  Ni3  1  0.856382  0.856382  0.856382  1
  P  P4  1  0.033062  0.751254  0.465753  1
  P  P5  1  0.465753  0.033062  0.751254  1
  P  P6  1  0.751254  0.465753  0.033062  1
  P  P7  1  0.251939  0.532192  0.965714  1
  P  P8  1  0.532192  0.965714  0.251939  1
  P  P9  1  0.965714  0.251939  0.532192  1
  O  O10  1  0.134110  0.289215  0.501466  1
  O  O11  1  0.289215  0.501466  0.134110  1
  O  O12  1  0.056213  0.927141  0.284595  1
  O  O13  1  0.501466  0.134110  0.289215  1
  O  O14  1  0.219201  0.582292  0.425767  1
  O  O15  1  0.022075  0.761832  0.639197  1
  O  O16  1  0.284595  0.056213  0.927141  1
  O  O17  1  0.425767  0.219201  0.582292  1
  O  O18  1  0.582292  0.425767  0.219201  1
  O  O19  1  0.220565  0.362748  0.990811  1
  O  O20  1  0.078188  0.713996  0.949192  1
  O  O21  1  0.362748  0.990811  0.220565  1
  O  O22  1  0.639197  0.022075  0.761832  1
  O  O23  1  0.927141  0.284595  0.056213  1
  O  O24  1  0.761832  0.639197  0.022075  1
  O  O25  1  0.423336  0.561804  0.780424  1
  O  O26  1  0.561804  0.780424  0.423336  1
  O  O27  1  0.713996  0.949192  0.078188  1
  O  O28  1  0.990811  0.220565  0.362748  1
  O  O29  1  0.780424  0.423336  0.561804  1
  O  O30  1  0.493266  0.860773  0.722591  1
  O  O31  1  0.949192  0.078188  0.713996  1
  O  O32  1  0.722591  0.493266  0.860773  1
  O  O33  1  0.860773  0.722591  0.493266  1
