# generated using pymatgen
data_Fe3Co3(TeO8)2
_symmetry_space_group_name_H-M   'P 1'
_cell_length_a   5.92568307
_cell_length_b   5.98650062
_cell_length_c   9.24518267
_cell_angle_alpha   90.59313959
_cell_angle_beta   90.73374576
_cell_angle_gamma   120.24143719
_symmetry_Int_Tables_number   1
_chemical_formula_structural   Fe3Co3(TeO8)2
_chemical_formula_sum   'Fe3 Co3 Te2 O16'
_cell_volume   283.25531474
_cell_formula_units_Z   1
loop_
 _symmetry_equiv_pos_site_id
 _symmetry_equiv_pos_as_xyz
  1  'x, y, z'
loop_
 _atom_site_type_symbol
 _atom_site_label
 _atom_site_symmetry_multiplicity
 _atom_site_fract_x
 _atom_site_fract_y
 _atom_site_fract_z
 _atom_site_occupancy
  Fe  Fe0  1  0.668377  0.841846  0.205822  1
  Fe  Fe1  1  0.837914  0.665719  0.710848  1
  Fe  Fe2  1  0.839694  0.171954  0.709515  1
  Co  Co3  1  0.167809  0.834695  0.204560  1
  Co  Co4  1  0.175241  0.346308  0.216652  1
  Co  Co5  1  0.347425  0.175030  0.714434  1
  Te  Te6  1  0.329552  0.663438  0.484955  1
  Te  Te7  1  0.666929  0.336643  0.989534  1
  O  O8  1  0.162583  0.815249  0.593382  1
  O  O9  1  0.033106  0.495984  0.340666  1
  O  O10  1  0.308163  0.649147  0.114231  1
  O  O11  1  0.022630  0.019419  0.295571  1
  O  O12  1  0.034227  0.017847  0.800206  1
  O  O13  1  0.172007  0.348473  0.597595  1
  O  O14  1  0.470566  0.951083  0.345749  1
  O  O15  1  0.467697  0.505774  0.340646  1
  O  O16  1  0.339946  0.179152  0.098394  1
  O  O17  1  0.657460  0.825221  0.595456  1
  O  O18  1  0.523673  0.485576  0.849079  1
  O  O19  1  0.518999  0.040464  0.848431  1
  O  O20  1  0.637930  0.316340  0.608330  1
  O  O21  1  0.829999  0.660119  0.101701  1
  O  O22  1  0.957632  0.479098  0.849989  1
  O  O23  1  0.830443  0.175620  0.099972  1
