# generated using pymatgen
data_LiFe(CO3)2
_symmetry_space_group_name_H-M   'P 1'
_cell_length_a   7.33547550
_cell_length_b   9.99180688
_cell_length_c   8.04767918
_cell_angle_alpha   90.00000000
_cell_angle_beta   72.39589170
_cell_angle_gamma   90.00000000
_symmetry_Int_Tables_number   1
_chemical_formula_structural   LiFe(CO3)2
_chemical_formula_sum   'Li4 Fe4 C8 O24'
_cell_volume   562.22850321
_cell_formula_units_Z   4
loop_
 _symmetry_equiv_pos_site_id
 _symmetry_equiv_pos_as_xyz
  1  'x, y, z'
loop_
 _atom_site_type_symbol
 _atom_site_label
 _atom_site_symmetry_multiplicity
 _atom_site_fract_x
 _atom_site_fract_y
 _atom_site_fract_z
 _atom_site_occupancy
  Li  Li0  1  0.006743  0.889303  0.335424  1
  Li  Li1  1  0.493257  0.389303  0.164576  1
  Li  Li2  1  0.506743  0.610697  0.835424  1
  Li  Li3  1  0.993257  0.110697  0.664576  1
  Fe  Fe4  1  0.060640  0.353963  0.425270  1
  Fe  Fe5  1  0.439360  0.853963  0.074730  1
  Fe  Fe6  1  0.560640  0.146037  0.925270  1
  Fe  Fe7  1  0.939360  0.646037  0.574730  1
  C  C8  1  0.255206  0.110960  0.276350  1
  C  C9  1  0.244794  0.610960  0.223650  1
  C  C10  1  0.265426  0.491060  0.640571  1
  C  C11  1  0.234574  0.991060  0.859429  1
  C  C12  1  0.765426  0.008940  0.140571  1
  C  C13  1  0.734574  0.508940  0.359429  1
  C  C14  1  0.755206  0.389040  0.776350  1
  C  C15  1  0.744794  0.889040  0.723650  1
  O  O16  1  0.117015  0.160074  0.405781  1
  O  O17  1  0.229511  0.482744  0.236603  1
  O  O18  1  0.132598  0.693193  0.330716  1
  O  O19  1  0.367402  0.193193  0.169284  1
  O  O20  1  0.270489  0.982745  0.263397  1
  O  O21  1  0.110150  0.992175  0.782028  1
  O  O22  1  0.382985  0.660074  0.094219  1
  O  O23  1  0.153388  0.595861  0.647172  1
  O  O24  1  0.241944  0.386376  0.550937  1
  O  O25  1  0.258056  0.886376  0.949063  1
  O  O26  1  0.346612  0.095861  0.852828  1
  O  O27  1  0.610150  0.507825  0.282028  1
  O  O28  1  0.389850  0.492175  0.717972  1
  O  O29  1  0.653388  0.904139  0.147172  1
  O  O30  1  0.741944  0.113624  0.050937  1
  O  O31  1  0.758056  0.613624  0.449063  1
  O  O32  1  0.846612  0.404139  0.352828  1
  O  O33  1  0.617015  0.339927  0.905781  1
  O  O34  1  0.889850  0.007825  0.217972  1
  O  O35  1  0.729511  0.017256  0.736603  1
  O  O36  1  0.632598  0.806807  0.830716  1
  O  O37  1  0.867402  0.306807  0.669284  1
  O  O38  1  0.770489  0.517255  0.763397  1
  O  O39  1  0.882985  0.839926  0.594219  1
