# generated using pymatgen
data_Li3V(FeO3)2
_symmetry_space_group_name_H-M   'P 1'
_cell_length_a   15.55657001
_cell_length_b   9.96438254
_cell_length_c   9.96438258
_cell_angle_alpha   17.32698577
_cell_angle_beta   16.70289288
_cell_angle_gamma   16.70289346
_symmetry_Int_Tables_number   1
_chemical_formula_structural   Li3V(FeO3)2
_chemical_formula_sum   'Li3 V1 Fe2 O6'
_cell_volume   113.89998631
_cell_formula_units_Z   1
loop_
 _symmetry_equiv_pos_site_id
 _symmetry_equiv_pos_as_xyz
  1  'x, y, z'
loop_
 _atom_site_type_symbol
 _atom_site_label
 _atom_site_symmetry_multiplicity
 _atom_site_fract_x
 _atom_site_fract_y
 _atom_site_fract_z
 _atom_site_occupancy
  Li  Li0  1  0.166667  0.500000  0.500000  1
  Li  Li1  1  0.508015  0.493570  0.493570  1
  Li  Li2  1  0.825318  0.506430  0.506430  1
  V  V3  1  0.666667  0.000000  0.000000  1
  Fe  Fe4  1  0.983587  0.014054  0.014054  1
  Fe  Fe5  1  0.349747  0.985946  0.985946  1
  O  O6  1  0.277525  0.236754  0.236754  1
  O  O7  1  0.577906  0.256135  0.256135  1
  O  O8  1  0.055808  0.763246  0.763246  1
  O  O9  1  0.891992  0.275072  0.275072  1
  O  O10  1  0.441341  0.724928  0.724928  1
  O  O11  1  0.755427  0.743865  0.743865  1
