# generated using pymatgen
data_Li8VCo3(PO4)6
_symmetry_space_group_name_H-M   'P 1'
_cell_length_a   8.93200813
_cell_length_b   8.94123616
_cell_length_c   8.62753273
_cell_angle_alpha   58.74488400
_cell_angle_beta   58.84278192
_cell_angle_gamma   60.06138285
_symmetry_Int_Tables_number   1
_chemical_formula_structural   Li8VCo3(PO4)6
_chemical_formula_sum   'Li8 V1 Co3 P6 O24'
_cell_volume   478.35230722
_cell_formula_units_Z   1
loop_
 _symmetry_equiv_pos_site_id
 _symmetry_equiv_pos_as_xyz
  1  'x, y, z'
loop_
 _atom_site_type_symbol
 _atom_site_label
 _atom_site_symmetry_multiplicity
 _atom_site_fract_x
 _atom_site_fract_y
 _atom_site_fract_z
 _atom_site_occupancy
  Li  Li0  1  0.982625  0.982932  0.052329  1
  Li  Li1  1  0.292816  0.835613  0.217167  1
  Li  Li2  1  0.836340  0.655403  0.217304  1
  Li  Li3  1  0.654709  0.293446  0.216270  1
  Li  Li4  1  0.508504  0.507711  0.476021  1
  Li  Li5  1  0.331815  0.716017  0.803073  1
  Li  Li6  1  0.147782  0.328852  0.804179  1
  Li  Li7  1  0.716151  0.149640  0.802491  1
  V  V8  1  0.146253  0.145554  0.562897  1
  Co  Co9  1  0.652572  0.649494  0.047604  1
  Co  Co10  1  0.852059  0.852319  0.443511  1
  Co  Co11  1  0.353971  0.354549  0.937263  1
  P  P12  1  0.545056  0.953986  0.246950  1
  P  P13  1  0.253757  0.545378  0.247473  1
  P  P14  1  0.953245  0.253263  0.247724  1
  P  P15  1  0.047891  0.757799  0.745032  1
  P  P16  1  0.757662  0.449359  0.744187  1
  P  P17  1  0.448937  0.048811  0.745702  1
  O  O18  1  0.741516  0.907746  0.238426  1
  O  O19  1  0.531271  0.775154  0.269501  1
  O  O20  1  0.111948  0.741135  0.239370  1
  O  O21  1  0.304848  0.524664  0.058838  1
  O  O22  1  0.424087  0.531932  0.269468  1
  O  O23  1  0.112466  0.302961  0.058759  1
  O  O24  1  0.010858  0.817062  0.566216  1
  O  O25  1  0.774940  0.424106  0.268720  1
  O  O26  1  0.086748  0.912061  0.749272  1
  O  O27  1  0.524655  0.112564  0.058298  1
  O  O28  1  0.819380  0.604475  0.563860  1
  O  O29  1  0.180706  0.384555  0.425335  1
  O  O30  1  0.462667  0.883172  0.935555  1
  O  O31  1  0.906483  0.111953  0.239458  1
  O  O32  1  0.232143  0.595548  0.741992  1
  O  O33  1  0.882576  0.719711  0.936145  1
  O  O34  1  0.008337  0.180001  0.425804  1
  O  O35  1  0.595250  0.431458  0.739970  1
  O  O36  1  0.385661  0.009563  0.424909  1
  O  O37  1  0.719149  0.463269  0.934274  1
  O  O38  1  0.912084  0.251681  0.750536  1
  O  O39  1  0.431274  0.233625  0.740430  1
  O  O40  1  0.604497  0.012136  0.566056  1
  O  O41  1  0.251330  0.086361  0.750574  1
