# generated using pymatgen
data_LiVF4
_symmetry_space_group_name_H-M   'P 1'
_cell_length_a   7.55590772
_cell_length_b   7.69373281
_cell_length_c   10.60456437
_cell_angle_alpha   89.99816701
_cell_angle_beta   89.99622611
_cell_angle_gamma   90.16474401
_symmetry_Int_Tables_number   1
_chemical_formula_structural   LiVF4
_chemical_formula_sum   'Li8 V8 F32'
_cell_volume   616.47402375
_cell_formula_units_Z   8
loop_
 _symmetry_equiv_pos_site_id
 _symmetry_equiv_pos_as_xyz
  1  'x, y, z'
loop_
 _atom_site_type_symbol
 _atom_site_label
 _atom_site_symmetry_multiplicity
 _atom_site_fract_x
 _atom_site_fract_y
 _atom_site_fract_z
 _atom_site_occupancy
  Li  Li0  1  -0.000088  0.265304  0.233834  1
  Li  Li1  1  0.999333  0.046825  0.743281  1
  Li  Li2  1  0.999351  0.850975  0.242505  1
  Li  Li3  1  0.999787  0.589487  0.738034  1
  Li  Li4  1  0.499896  0.089565  0.262026  1
  Li  Li5  1  0.499390  0.350988  0.757462  1
  Li  Li6  1  0.499404  0.546706  0.256729  1
  Li  Li7  1  0.499885  0.765250  0.766300  1
  V  V8  1  0.247564  0.492259  0.995879  1
  V  V9  1  0.250263  0.738019  0.495962  1
  V  V10  1  0.249768  0.237976  0.504126  1
  V  V11  1  0.252541  0.992198  0.003862  1
  V  V12  1  0.747527  0.992215  0.004020  1
  V  V13  1  0.750237  0.238023  0.504057  1
  V  V14  1  0.749763  0.737962  0.495929  1
  V  V15  1  0.752501  0.492229  0.996028  1
  F  F16  1  0.999955  0.202884  0.429104  1
  F  F17  1  0.000083  0.029464  0.931614  1
  F  F18  1  0.000113  0.785847  0.422847  1
  F  F19  1  0.999987  0.473028  0.915337  1
  F  F20  1  0.167633  0.757646  0.665033  1
  F  F21  1  0.171280  0.436957  0.160195  1
  F  F22  1  0.171412  0.021619  0.175267  1
  F  F23  1  0.179592  0.200758  0.674447  1
  F  F24  1  0.193728  0.486781  0.513294  1
  F  F25  1  0.195244  0.740244  0.024128  1
  F  F26  1  0.304848  0.240583  0.975783  1
  F  F27  1  0.306462  0.987113  0.486660  1
  F  F28  1  0.320682  0.701003  0.325572  1
  F  F29  1  0.328845  0.522204  0.824649  1
  F  F30  1  0.328980  0.937198  0.839851  1
  F  F31  1  0.332608  0.258058  0.334855  1
  F  F32  1  0.500122  0.285824  0.577157  1
  F  F33  1  0.500077  0.529484  0.068391  1
  F  F34  1  0.499976  0.973040  0.084645  1
  F  F35  1  0.499951  0.702870  0.570870  1
  F  F36  1  0.667667  0.257764  0.334930  1
  F  F37  1  0.671301  0.936967  0.839865  1
  F  F38  1  0.671431  0.521703  0.824738  1
  F  F39  1  0.679543  0.700794  0.325551  1
  F  F40  1  0.693610  0.986821  0.486693  1
  F  F41  1  0.695302  0.240254  0.975877  1
  F  F42  1  0.804822  0.740579  0.024233  1
  F  F43  1  0.806489  0.487085  0.513320  1
  F  F44  1  0.820664  0.201045  0.674413  1
  F  F45  1  0.828796  0.022180  0.175395  1
  F  F46  1  0.829044  0.437238  0.160154  1
  F  F47  1  0.832630  0.758081  0.665097  1
