# generated using pymatgen
data_Li5Fe6(BO3)6
_symmetry_space_group_name_H-M   'P 1'
_cell_length_a   8.24783472
_cell_length_b   8.82234279
_cell_length_c   6.23560599
_cell_angle_alpha   69.30467049
_cell_angle_beta   90.00000000
_cell_angle_gamma   61.71886039
_symmetry_Int_Tables_number   1
_chemical_formula_structural   Li5Fe6(BO3)6
_chemical_formula_sum   'Li5 Fe6 B6 O18'
_cell_volume   365.98877847
_cell_formula_units_Z   1
loop_
 _symmetry_equiv_pos_site_id
 _symmetry_equiv_pos_as_xyz
  1  'x, y, z'
loop_
 _atom_site_type_symbol
 _atom_site_label
 _atom_site_symmetry_multiplicity
 _atom_site_fract_x
 _atom_site_fract_y
 _atom_site_fract_z
 _atom_site_occupancy
  Li  Li0  1  0.715671  0.983153  0.758424  1
  Li  Li1  1  0.983525  0.300238  0.599882  1
  Li  Li2  1  0.984404  0.301354  0.099323  1
  Li  Li3  1  0.303385  0.715564  0.392218  1
  Li  Li4  1  0.297315  0.717541  0.891229  1
  Fe  Fe5  1  0.634141  0.351314  0.830711  1
  Fe  Fe6  1  0.634141  0.351314  0.317976  1
  Fe  Fe7  1  0.367194  0.009310  0.002006  1
  Fe  Fe8  1  0.367194  0.009310  0.488683  1
  Fe  Fe9  1  0.999167  0.640475  0.185344  1
  Fe  Fe10  1  0.999167  0.640475  0.674182  1
  B  B11  1  0.665338  0.666861  0.916569  1
  B  B12  1  0.665291  0.660299  0.419851  1
  B  B13  1  0.330855  0.332766  0.583617  1
  B  B14  1  0.326149  0.342735  0.078633  1
  B  B15  1  0.005525  0.997532  0.997247  1
  B  B16  1  0.005525  0.997532  0.505222  1
  O  O17  1  0.903517  0.909790  0.562695  1
  O  O18  1  0.903517  0.909790  0.027515  1
  O  O19  1  0.859070  0.583414  0.958293  1
  O  O20  1  0.859564  0.580666  0.459667  1
  O  O21  1  0.916216  0.194168  0.403392  1
  O  O22  1  0.916216  0.194168  0.902441  1
  O  O23  1  0.547146  0.852893  0.323553  1
  O  O24  1  0.555360  0.862043  0.818979  1
  O  O25  1  0.587987  0.544498  0.477751  1
  O  O26  1  0.580753  0.557982  0.971009  1
  O  O27  1  0.517554  0.270207  0.114897  1
  O  O28  1  0.525305  0.253407  0.623297  1
  O  O29  1  0.202583  0.893283  0.553180  1
  O  O30  1  0.202583  0.893283  0.053537  1
  O  O31  1  0.212285  0.527280  0.486360  1
  O  O32  1  0.204173  0.535782  0.982109  1
  O  O33  1  0.253435  0.216213  0.641894  1
  O  O34  1  0.254430  0.220508  0.139746  1
