# generated using pymatgen
data_Li2TiVO4
_symmetry_space_group_name_H-M   'P 1'
_cell_length_a   5.22885606
_cell_length_b   5.98803473
_cell_length_c   7.90521881
_cell_angle_alpha   79.07605632
_cell_angle_beta   70.98484725
_cell_angle_gamma   90.16731633
_symmetry_Int_Tables_number   1
_chemical_formula_structural   Li2TiVO4
_chemical_formula_sum   'Li6 Ti3 V3 O12'
_cell_volume   229.21201704
_cell_formula_units_Z   3
loop_
 _symmetry_equiv_pos_site_id
 _symmetry_equiv_pos_as_xyz
  1  'x, y, z'
loop_
 _atom_site_type_symbol
 _atom_site_label
 _atom_site_symmetry_multiplicity
 _atom_site_fract_x
 _atom_site_fract_y
 _atom_site_fract_z
 _atom_site_occupancy
  Li  Li0  1  0.001081  0.498763  0.999295  1
  Li  Li1  1  0.003253  0.330151  0.669136  1
  Li  Li2  1  0.002408  0.009117  0.999246  1
  Li  Li3  1  0.998904  0.667936  0.334028  1
  Li  Li4  1  0.997591  0.157588  0.334078  1
  Li  Li5  1  0.996762  0.836498  0.664182  1
  Ti  Ti6  1  0.502760  0.767757  0.001720  1
  Ti  Ti7  1  0.497238  0.398912  0.331626  1
  Ti  Ti8  1  0.499998  0.583328  0.666676  1
  V  V9  1  0.498661  0.261251  0.001759  1
  V  V10  1  0.501347  0.905426  0.331565  1
  V  V11  1  0.499998  0.083311  0.666670  1
  O  O12  1  0.261360  0.952301  0.155969  1
  O  O13  1  0.271998  0.475808  0.170359  1
  O  O14  1  0.263555  0.133859  0.488271  1
  O  O15  1  0.273895  0.607112  0.502565  1
  O  O16  1  0.264969  0.308369  0.825106  1
  O  O17  1  0.274333  0.779241  0.833488  1
  O  O18  1  0.728006  0.690861  0.162985  1
  O  O19  1  0.738641  0.214386  0.177359  1
  O  O20  1  0.725642  0.387389  0.499865  1
  O  O21  1  0.735039  0.858271  0.508219  1
  O  O22  1  0.726115  0.559564  0.830769  1
  O  O23  1  0.736448  0.032802  0.845064  1
