# generated using pymatgen
data_Mn2CoO6
_symmetry_space_group_name_H-M   'P 1'
_cell_length_a   6.53457324
_cell_length_b   2.89797927
_cell_length_c   5.85914692
_cell_angle_alpha   90.48271038
_cell_angle_beta   103.97930181
_cell_angle_gamma   76.74019936
_symmetry_Int_Tables_number   1
_chemical_formula_structural   Mn2CoO6
_chemical_formula_sum   'Mn2 Co1 O6'
_cell_volume   104.66866888
_cell_formula_units_Z   1
loop_
 _symmetry_equiv_pos_site_id
 _symmetry_equiv_pos_as_xyz
  1  'x, y, z'
loop_
 _atom_site_type_symbol
 _atom_site_label
 _atom_site_symmetry_multiplicity
 _atom_site_fract_x
 _atom_site_fract_y
 _atom_site_fract_z
 _atom_site_occupancy
  Mn  Mn0  1  0.001998  0.997740  0.001939  1
  Mn  Mn1  1  0.665323  0.666495  0.663014  1
  Co  Co2  1  0.333975  0.332788  0.332015  1
  O  O3  1  0.028289  0.488245  0.225037  1
  O  O4  1  0.353546  0.826877  0.546268  1
  O  O5  1  0.687677  0.158328  0.887355  1
  O  O6  1  0.314035  0.839332  0.117528  1
  O  O7  1  0.639595  0.176267  0.439865  1
  O  O8  1  0.979196  0.505553  0.777509  1
