# generated using pymatgen
data_LiSi6Bi9O26
_symmetry_space_group_name_H-M   'P 1'
_cell_length_a   9.71820639
_cell_length_b   9.71818434
_cell_length_c   14.14931913
_cell_angle_alpha   89.99998077
_cell_angle_beta   90.00027493
_cell_angle_gamma   120.00006320
_symmetry_Int_Tables_number   1
_chemical_formula_structural   LiSi6Bi9O26
_chemical_formula_sum   'Li2 Si12 Bi18 O52'
_cell_volume   1157.27653610
_cell_formula_units_Z   2
loop_
 _symmetry_equiv_pos_site_id
 _symmetry_equiv_pos_as_xyz
  1  'x, y, z'
loop_
 _atom_site_type_symbol
 _atom_site_label
 _atom_site_symmetry_multiplicity
 _atom_site_fract_x
 _atom_site_fract_y
 _atom_site_fract_z
 _atom_site_occupancy
  Li  Li0  1  0.333295  0.666701  0.742155  1
  Li  Li1  1  0.666602  0.333302  0.257844  1
  Si  Si2  1  0.029441  0.627822  0.872374  1
  Si  Si3  1  0.024446  0.624159  0.374439  1
  Si  Si4  1  0.599721  0.975559  0.374439  1
  Si  Si5  1  0.598380  0.970554  0.872373  1
  Si  Si6  1  0.375843  0.400282  0.374441  1
  Si  Si7  1  0.372168  0.401613  0.872372  1
  Si  Si8  1  0.627833  0.598363  0.127629  1
  Si  Si9  1  0.624162  0.599701  0.625558  1
  Si  Si10  1  0.401635  0.029472  0.127625  1
  Si  Si11  1  0.400298  0.024470  0.625561  1
  Si  Si12  1  0.970529  0.372167  0.127624  1
  Si  Si13  1  0.975528  0.375832  0.625560  1
  Bi  Bi14  1  0.987834  0.759018  0.126756  1
  Bi  Bi15  1  0.988987  0.758717  0.626030  1
  Bi  Bi16  1  0.333338  0.666667  0.244730  1
  Bi  Bi17  1  0.333334  0.666668  0.519698  1
  Bi  Bi18  1  0.333331  0.666657  0.986476  1
  Bi  Bi19  1  0.240980  0.228818  0.126754  1
  Bi  Bi20  1  0.241278  0.230272  0.626030  1
  Bi  Bi21  1  0.228818  0.987836  0.873245  1
  Bi  Bi22  1  0.230273  0.988997  0.373971  1
  Bi  Bi23  1  0.771181  0.012167  0.126757  1
  Bi  Bi24  1  0.769725  0.011006  0.626030  1
  Bi  Bi25  1  0.758726  0.769728  0.373971  1
  Bi  Bi26  1  0.759018  0.771182  0.873248  1
  Bi  Bi27  1  0.666671  0.333337  0.480300  1
  Bi  Bi28  1  0.666665  0.333334  0.013521  1
  Bi  Bi29  1  0.666656  0.333330  0.755266  1
  Bi  Bi30  1  0.011004  0.241280  0.373969  1
  Bi  Bi31  1  0.012156  0.240977  0.873242  1
  O  O32  1  0.079363  0.759288  0.786014  1
  O  O33  1  0.089938  0.750525  0.284072  1
  O  O34  1  0.089692  0.748379  0.465459  1
  O  O35  1  0.095820  0.749128  0.965385  1
  O  O36  1  0.132169  0.534691  0.870887  1
  O  O37  1  0.121442  0.525667  0.371864  1
  O  O38  1  0.335692  0.838220  0.126315  1
  O  O39  1  0.324437  0.831504  0.627854  1
  O  O40  1  0.168488  0.492945  0.627851  1
  O  O41  1  0.161782  0.497478  0.126316  1
  O  O42  1  0.402512  0.867819  0.870881  1
  O  O43  1  0.404230  0.878564  0.371866  1
  O  O44  1  0.000003  0.000005  0.373144  1
  O  O45  1  1.000000  0.000004  0.122249  1
  O  O46  1  -0.000000  0.999999  0.877767  1
  O  O47  1  0.999995  0.999995  0.626856  1
  O  O48  1  0.250868  0.346705  0.965388  1
  O  O49  1  0.249478  0.339418  0.284073  1
  O  O50  1  0.251628  0.341311  0.465462  1
  O  O51  1  0.240695  0.320063  0.786019  1
  O  O52  1  0.502528  0.664303  0.126320  1
  O  O53  1  0.507074  0.675570  0.627845  1
  O  O54  1  0.465311  0.597481  0.870893  1
  O  O55  1  0.474341  0.595774  0.371870  1
  O  O56  1  0.653296  0.904172  0.965388  1
  O  O57  1  0.658694  0.910319  0.465459  1
  O  O58  1  0.660591  0.910066  0.284073  1
  O  O59  1  0.679940  0.920644  0.786022  1
  O  O60  1  0.346708  0.095830  0.034612  1
  O  O61  1  0.320068  0.079365  0.213981  1
  O  O62  1  0.341313  0.089685  0.534540  1
  O  O63  1  0.339415  0.089940  0.715925  1
  O  O64  1  0.534690  0.402514  0.129122  1
  O  O65  1  0.525651  0.404229  0.628134  1
  O  O66  1  0.492925  0.324444  0.372144  1
  O  O67  1  0.497448  0.335682  0.873681  1
  O  O68  1  0.748368  0.658676  0.534536  1
  O  O69  1  0.750518  0.660576  0.715925  1
  O  O70  1  0.749117  0.653288  0.034615  1
  O  O71  1  0.759298  0.679932  0.213983  1
  O  O72  1  0.597479  0.132177  0.129120  1
  O  O73  1  0.595766  0.121431  0.628136  1
  O  O74  1  0.831526  0.507079  0.372152  1
  O  O75  1  0.838224  0.502533  0.873682  1
  O  O76  1  0.675554  0.168482  0.372146  1
  O  O77  1  0.664297  0.161768  0.873684  1
  O  O78  1  0.867834  0.465314  0.129108  1
  O  O79  1  0.878556  0.474332  0.628134  1
  O  O80  1  0.910311  0.251633  0.534538  1
  O  O81  1  0.904169  0.250875  0.034614  1
  O  O82  1  0.920642  0.240710  0.213981  1
  O  O83  1  0.910061  0.249481  0.715925  1
