# generated using pymatgen
data_LiSb(SO4)2
_symmetry_space_group_name_H-M   'P 1'
_cell_length_a   9.81985033
_cell_length_b   9.70459156
_cell_length_c   14.56763163
_cell_angle_alpha   90.00000000
_cell_angle_beta   90.20786235
_cell_angle_gamma   90.00000000
_symmetry_Int_Tables_number   1
_chemical_formula_structural   LiSb(SO4)2
_chemical_formula_sum   'Li8 Sb8 S16 O64'
_cell_volume   1388.25172985
_cell_formula_units_Z   8
loop_
 _symmetry_equiv_pos_site_id
 _symmetry_equiv_pos_as_xyz
  1  'x, y, z'
loop_
 _atom_site_type_symbol
 _atom_site_label
 _atom_site_symmetry_multiplicity
 _atom_site_fract_x
 _atom_site_fract_y
 _atom_site_fract_z
 _atom_site_occupancy
  Li  Li0  1  0.214684  0.955384  0.368755  1
  Li  Li1  1  0.214684  0.544616  0.868755  1
  Li  Li2  1  0.290844  0.047771  0.871692  1
  Li  Li3  1  0.290844  0.452229  0.371692  1
  Li  Li4  1  0.775598  0.440854  0.128659  1
  Li  Li5  1  0.775598  0.059146  0.628659  1
  Li  Li6  1  0.952161  0.767697  0.629322  1
  Li  Li7  1  0.952161  0.732303  0.129322  1
  Sb  Sb8  1  0.139304  0.112425  0.124242  1
  Sb  Sb9  1  0.139304  0.387575  0.624242  1
  Sb  Sb10  1  0.369130  0.611296  0.126603  1
  Sb  Sb11  1  0.369130  0.888704  0.626603  1
  Sb  Sb12  1  0.639114  0.100506  0.371717  1
  Sb  Sb13  1  0.639114  0.399494  0.871717  1
  Sb  Sb14  1  0.852821  0.596107  0.380441  1
  Sb  Sb15  1  0.852821  0.903893  0.880441  1
  S  S16  1  0.068954  0.068889  0.732299  1
  S  S17  1  0.068954  0.431111  0.232299  1
  S  S18  1  0.154951  0.688264  0.486700  1
  S  S19  1  0.154951  0.811736  0.986700  1
  S  S20  1  0.342168  0.186758  0.482762  1
  S  S21  1  0.342168  0.313242  0.982762  1
  S  S22  1  0.423468  0.924708  0.230690  1
  S  S23  1  0.423468  0.575292  0.730690  1
  S  S24  1  0.569816  0.424466  0.268365  1
  S  S25  1  0.569816  0.075534  0.768365  1
  S  S26  1  0.668333  0.682356  0.018146  1
  S  S27  1  0.668333  0.817644  0.518146  1
  S  S28  1  0.844344  0.188261  0.011617  1
  S  S29  1  0.844344  0.311739  0.511617  1
  S  S30  1  0.930488  0.577603  0.768281  1
  S  S31  1  0.930488  0.922397  0.268281  1
  O  O32  1  0.999496  0.692959  0.480273  1
  O  O33  1  0.999496  0.807041  0.980273  1
  O  O34  1  0.023664  0.979046  0.336487  1
  O  O35  1  0.023664  0.520954  0.836487  1
  O  O36  1  0.022496  0.456927  0.329336  1
  O  O37  1  0.022496  0.043073  0.829336  1
  O  O38  1  0.058321  0.221965  0.716661  1
  O  O39  1  0.058321  0.278035  0.216661  1
  O  O40  1  0.180780  0.748925  0.079546  1
  O  O41  1  0.180780  0.751075  0.579546  1
  O  O42  1  0.201265  0.958711  0.987768  1
  O  O43  1  0.201265  0.541289  0.487768  1
  O  O44  1  0.214835  0.026225  0.730727  1
  O  O45  1  0.214835  0.473775  0.230727  1
  O  O46  1  0.219200  0.762302  0.412048  1
  O  O47  1  0.219200  0.737698  0.912048  1
  O  O48  1  0.277585  0.261232  0.407094  1
  O  O49  1  0.277585  0.238768  0.907094  1
  O  O50  1  0.275342  0.963854  0.233316  1
  O  O51  1  0.275342  0.536146  0.733316  1
  O  O52  1  0.294731  0.040366  0.484549  1
  O  O53  1  0.294731  0.459634  0.984549  1
  O  O54  1  0.310374  0.249292  0.074463  1
  O  O55  1  0.310374  0.250708  0.574463  1
  O  O56  1  0.429233  0.766128  0.223363  1
  O  O57  1  0.429233  0.733872  0.723363  1
  O  O58  1  0.474090  0.546263  0.827877  1
  O  O59  1  0.474090  0.953737  0.327877  1
  O  O60  1  0.483156  0.491884  0.335597  1
  O  O61  1  0.483156  0.008116  0.835597  1
  O  O62  1  0.495711  0.189552  0.474875  1
  O  O63  1  0.495711  0.310448  0.974875  1
  O  O64  1  0.516993  0.698189  0.034707  1
  O  O65  1  0.516993  0.801811  0.534707  1
  O  O66  1  0.500440  0.508082  0.660561  1
  O  O67  1  0.500440  0.991918  0.160561  1
  O  O68  1  0.530477  0.464566  0.170483  1
  O  O69  1  0.530477  0.035434  0.670483  1
  O  O70  1  0.563857  0.271400  0.273517  1
  O  O71  1  0.563857  0.228600  0.773517  1
  O  O72  1  0.692061  0.745319  0.429318  1
  O  O73  1  0.692061  0.754681  0.929318  1
  O  O74  1  0.700693  0.531073  0.005258  1
  O  O75  1  0.700693  0.968927  0.505258  1
  O  O76  1  0.716688  0.469090  0.274354  1
  O  O77  1  0.716688  0.030910  0.774354  1
  O  O78  1  0.750271  0.734331  0.094067  1
  O  O79  1  0.750271  0.765669  0.594067  1
  O  O80  1  0.777235  0.251104  0.089741  1
  O  O81  1  0.777235  0.248896  0.589741  1
  O  O82  1  0.789173  0.528581  0.781105  1
  O  O83  1  0.789173  0.971419  0.281105  1
  O  O84  1  0.801137  0.460105  0.501022  1
  O  O85  1  0.801137  0.039895  0.001022  1
  O  O86  1  0.817338  0.238690  0.423428  1
  O  O87  1  0.817338  0.261310  0.923428  1
  O  O88  1  0.931239  0.734005  0.767952  1
  O  O89  1  0.931239  0.765995  0.267952  1
  O  O90  1  0.974073  0.542014  0.670652  1
  O  O91  1  0.974073  0.957986  0.170652  1
  O  O92  1  0.983743  0.993896  0.664947  1
  O  O93  1  0.983743  0.506104  0.164947  1
  O  O94  1  0.999028  0.191449  0.023538  1
  O  O95  1  0.999028  0.308551  0.523538  1
