# generated using pymatgen
data_LiV2OF5
_symmetry_space_group_name_H-M   'P 1'
_cell_length_a   5.22439871
_cell_length_b   5.54916397
_cell_length_c   17.32514180
_cell_angle_alpha   91.40083590
_cell_angle_beta   97.23530420
_cell_angle_gamma   61.60897551
_symmetry_Int_Tables_number   1
_chemical_formula_structural   LiV2OF5
_chemical_formula_sum   'Li4 V8 O4 F20'
_cell_volume   437.98203473
_cell_formula_units_Z   4
loop_
 _symmetry_equiv_pos_site_id
 _symmetry_equiv_pos_as_xyz
  1  'x, y, z'
loop_
 _atom_site_type_symbol
 _atom_site_label
 _atom_site_symmetry_multiplicity
 _atom_site_fract_x
 _atom_site_fract_y
 _atom_site_fract_z
 _atom_site_occupancy
  Li  Li0  1  0.170162  0.333530  0.687169  1
  Li  Li1  1  0.416988  0.205918  0.080402  1
  Li  Li2  1  0.668833  0.077256  0.437963  1
  Li  Li3  1  0.684036  0.590778  0.943190  1
  V  V4  1  0.258786  0.396926  0.871789  1
  V  V5  1  0.500259  0.230638  0.256556  1
  V  V6  1  0.257897  0.878320  0.370615  1
  V  V7  1  0.496124  0.744339  0.755996  1
  V  V8  1  0.758760  0.138133  0.622296  1
  V  V9  1  0.997177  0.021515  0.002270  1
  V  V10  1  0.771354  0.595413  0.125468  1
  V  V11  1  0.991695  0.488351  0.503955  1
  O  O12  1  0.426835  0.081801  0.340056  1
  O  O13  1  0.440648  0.592569  0.843914  1
  O  O14  1  0.928630  0.338679  0.590567  1
  O  O15  1  0.987621  0.314888  0.058824  1
  F  F16  1  0.036547  0.200762  0.908574  1
  F  F17  1  0.976611  0.185930  0.434746  1
  F  F18  1  0.985792  0.702940  0.935612  1
  F  F19  1  0.491680  0.062272  0.818950  1
  F  F20  1  0.064902  0.460219  0.215342  1
  F  F21  1  0.059929  0.681112  0.416457  1
  F  F22  1  0.079272  -0.000202  0.718477  1
  F  F23  1  0.546125  0.241784  0.974998  1
  F  F24  1  0.438207  0.268805  0.524920  1
  F  F25  1  0.478910  0.443617  0.685975  1
  F  F26  1  0.493284  0.546865  0.316357  1
  F  F27  1  0.550828  0.399894  0.155494  1
  F  F28  1  0.576594  0.740545  0.466219  1
  F  F29  1  0.555477  0.942502  0.667141  1
  F  F30  1  0.450156  0.792942  0.027178  1
  F  F31  1  0.924715  0.019027  0.279742  1
  F  F32  1  0.943384  0.531926  0.773488  1
  F  F33  1  0.507415  0.945744  0.173467  1
  F  F34  1  0.985953  0.804600  0.567962  1
  F  F35  1  0.935944  0.837309  0.086896  1
