# generated using pymatgen
data_Li8MnO5F
_symmetry_space_group_name_H-M   'P 1'
_cell_length_a   5.35003764
_cell_length_b   6.00031462
_cell_length_c   5.36630577
_cell_angle_alpha   112.11448027
_cell_angle_beta   65.99854088
_cell_angle_gamma   118.16530522
_symmetry_Int_Tables_number   1
_chemical_formula_structural   Li8MnO5F
_chemical_formula_sum   'Li8 Mn1 O5 F1'
_cell_volume   135.05067492
_cell_formula_units_Z   1
loop_
 _symmetry_equiv_pos_site_id
 _symmetry_equiv_pos_as_xyz
  1  'x, y, z'
loop_
 _atom_site_type_symbol
 _atom_site_label
 _atom_site_symmetry_multiplicity
 _atom_site_fract_x
 _atom_site_fract_y
 _atom_site_fract_z
 _atom_site_occupancy
  Li  Li0  1  0.114871  0.360780  0.475575  1
  Li  Li1  1  0.527672  0.651650  0.229347  1
  Li  Li2  1  0.238672  0.647040  0.890549  1
  Li  Li3  1  0.298282  0.011103  0.361394  1
  Li  Li4  1  0.665187  0.965527  0.662288  1
  Li  Li5  1  0.765664  0.347056  0.094525  1
  Li  Li6  1  0.468307  0.369058  0.793842  1
  Li  Li7  1  0.899341  0.652435  0.518352  1
  Mn  Mn8  1  0.021166  0.978992  0.968330  1
  O  O9  1  0.268041  0.760360  0.580316  1
  O  O10  1  0.361881  0.239840  0.112802  1
  O  O11  1  0.063111  0.231654  0.778500  1
  O  O12  1  0.937720  0.756135  0.208902  1
  O  O13  1  0.640626  0.751853  0.884821  1
  F  F14  1  0.729456  0.276514  0.440458  1
