# generated using pymatgen
data_Li3NbV3O8
_symmetry_space_group_name_H-M   'P 1'
_cell_length_a   10.63112433
_cell_length_b   10.60169169
_cell_length_c   15.03109607
_cell_angle_alpha   19.33695697
_cell_angle_beta   19.34727746
_cell_angle_gamma   33.32153237
_symmetry_Int_Tables_number   1
_chemical_formula_structural   Li3NbV3O8
_chemical_formula_sum   'Li3 Nb1 V3 O8'
_cell_volume   161.09061902
_cell_formula_units_Z   1
loop_
 _symmetry_equiv_pos_site_id
 _symmetry_equiv_pos_as_xyz
  1  'x, y, z'
loop_
 _atom_site_type_symbol
 _atom_site_label
 _atom_site_symmetry_multiplicity
 _atom_site_fract_x
 _atom_site_fract_y
 _atom_site_fract_z
 _atom_site_occupancy
  Li  Li0  1  0.000012  0.499995  0.499997  1
  Li  Li1  1  0.499992  0.000014  0.500000  1
  Li  Li2  1  0.500013  0.500013  0.499982  1
  Nb  Nb3  1  0.999980  0.999984  0.000027  1
  V  V4  1  0.000008  0.500004  0.999992  1
  V  V5  1  0.500001  0.999995  0.000002  1
  V  V6  1  0.499996  0.500002  -0.000001  1
  O  O7  1  0.000319  0.977625  0.274190  1
  O  O8  1  0.000092  0.523336  0.242191  1
  O  O9  1  0.528925  0.015088  0.229349  1
  O  O10  1  0.999689  0.022379  0.725803  1
  O  O11  1  0.471579  0.486366  0.286724  1
  O  O12  1  0.999901  0.476662  0.757814  1
  O  O13  1  0.471076  0.984919  0.770639  1
  O  O14  1  0.528418  0.513618  0.713293  1
