# generated using pymatgen
data_LiMnVO4
_symmetry_space_group_name_H-M   'P 1'
_cell_length_a   5.89128580
_cell_length_b   5.98220937
_cell_length_c   5.98220971
_cell_angle_alpha   59.42672594
_cell_angle_beta   60.50151973
_cell_angle_gamma   60.50151789
_symmetry_Int_Tables_number   1
_chemical_formula_structural   LiMnVO4
_chemical_formula_sum   'Li2 Mn2 V2 O8'
_cell_volume   149.52871660
_cell_formula_units_Z   2
loop_
 _symmetry_equiv_pos_site_id
 _symmetry_equiv_pos_as_xyz
  1  'x, y, z'
loop_
 _atom_site_type_symbol
 _atom_site_label
 _atom_site_symmetry_multiplicity
 _atom_site_fract_x
 _atom_site_fract_y
 _atom_site_fract_z
 _atom_site_occupancy
  Li  Li0  1  0.120564  0.129436  0.129436  1
  Li  Li1  1  0.879436  0.870564  0.870564  1
  Mn  Mn2  1  0.000000  0.500000  0.500000  1
  Mn  Mn3  1  0.500000  0.500000  0.500000  1
  V  V4  1  0.500000  0.000000  0.500000  1
  V  V5  1  0.500000  0.500000  0.000000  1
  O  O6  1  0.252864  0.269783  0.269783  1
  O  O7  1  0.258159  0.270593  0.713087  1
  O  O8  1  0.258159  0.713087  0.270593  1
  O  O9  1  0.707571  0.269783  0.269783  1
  O  O10  1  0.292429  0.730217  0.730217  1
  O  O11  1  0.741841  0.729407  0.286913  1
  O  O12  1  0.741841  0.286913  0.729407  1
  O  O13  1  0.747136  0.730217  0.730217  1
