# generated using pymatgen
data_Mn3Co3(SnO8)2
_symmetry_space_group_name_H-M   'P 1'
_cell_length_a   5.72433248
_cell_length_b   5.73978114
_cell_length_c   9.42607293
_cell_angle_alpha   89.97979168
_cell_angle_beta   90.91909192
_cell_angle_gamma   120.08646569
_symmetry_Int_Tables_number   1
_chemical_formula_structural   Mn3Co3(SnO8)2
_chemical_formula_sum   'Mn3 Co3 Sn2 O16'
_cell_volume   267.93504870
_cell_formula_units_Z   1
loop_
 _symmetry_equiv_pos_site_id
 _symmetry_equiv_pos_as_xyz
  1  'x, y, z'
loop_
 _atom_site_type_symbol
 _atom_site_label
 _atom_site_symmetry_multiplicity
 _atom_site_fract_x
 _atom_site_fract_y
 _atom_site_fract_z
 _atom_site_occupancy
  Mn  Mn0  1  0.665107  0.832536  0.215405  1
  Mn  Mn1  1  0.832718  0.664858  0.714845  1
  Mn  Mn2  1  0.832734  0.167890  0.714858  1
  Co  Co3  1  0.167814  0.832825  0.211480  1
  Co  Co4  1  0.167859  0.335004  0.211542  1
  Co  Co5  1  0.334603  0.167293  0.710551  1
  Sn  Sn6  1  0.331403  0.665736  0.489998  1
  Sn  Sn7  1  0.664260  0.332199  0.992215  1
  O  O8  1  0.162017  0.844296  0.606905  1
  O  O9  1  0.034714  0.517336  0.321910  1
  O  O10  1  0.330215  0.665148  0.109592  1
  O  O11  1  0.005620  0.002707  0.313830  1
  O  O12  1  0.004898  0.002341  0.814610  1
  O  O13  1  0.161924  0.317696  0.606871  1
  O  O14  1  0.479505  0.967227  0.328532  1
  O  O15  1  0.479572  0.512253  0.328604  1
  O  O16  1  0.315180  0.157652  0.111533  1
  O  O17  1  0.682819  0.841517  0.603539  1
  O  O18  1  0.511311  0.478583  0.827373  1
  O  O19  1  0.511423  0.032800  0.827460  1
  O  O20  1  0.665113  0.332664  0.608983  1
  O  O21  1  0.844907  0.684431  0.106354  1
  O  O22  1  0.969343  0.484592  0.832316  1
  O  O23  1  0.844942  0.160617  0.106413  1
