# generated using pymatgen
data_Li4Mn3Cr3O12
_symmetry_space_group_name_H-M   'P 1'
_cell_length_a   5.16647500
_cell_length_b   8.94034651
_cell_length_c   5.07949311
_cell_angle_alpha   90.00000334
_cell_angle_beta   71.44960244
_cell_angle_gamma   90.00000175
_symmetry_Int_Tables_number   1
_chemical_formula_structural   Li4Mn3Cr3O12
_chemical_formula_sum   'Li4 Mn3 Cr3 O12'
_cell_volume   222.43219026
_cell_formula_units_Z   1
loop_
 _symmetry_equiv_pos_site_id
 _symmetry_equiv_pos_as_xyz
  1  'x, y, z'
loop_
 _atom_site_type_symbol
 _atom_site_label
 _atom_site_symmetry_multiplicity
 _atom_site_fract_x
 _atom_site_fract_y
 _atom_site_fract_z
 _atom_site_occupancy
  Li  Li0  1  0.000000  0.663663  0.000000  1
  Li  Li1  1  0.000000  0.003004  1.000000  1
  Li  Li2  1  0.000000  0.501368  0.500000  1
  Li  Li3  1  0.000000  0.165299  0.500000  1
  Mn  Mn4  1  0.500000  0.833333  0.000000  1
  Mn  Mn5  1  0.500000  0.497220  1.000000  1
  Mn  Mn6  1  0.500000  0.169447  0.000000  1
  Cr  Cr7  1  0.500000  0.667130  0.500000  1
  Cr  Cr8  1  0.500000  0.333333  0.500000  1
  Cr  Cr9  1  0.500000  0.999537  0.500000  1
  O  O10  1  0.279877  0.650120  0.231220  1
  O  O11  1  0.287795  0.333333  0.235262  1
  O  O12  1  0.279877  0.016547  0.231220  1
  O  O13  1  0.290451  0.833333  0.749828  1
  O  O14  1  0.289495  0.502544  0.740145  1
  O  O15  1  0.289495  0.164123  0.740145  1
  O  O16  1  0.709549  0.833333  0.250172  1
  O  O17  1  0.710505  0.502544  0.259855  1
  O  O18  1  0.710505  0.164123  0.259855  1
  O  O19  1  0.720123  0.650120  0.768780  1
  O  O20  1  0.712205  0.333333  0.764738  1
  O  O21  1  0.720123  0.016547  0.768780  1
