# generated using pymatgen
data_Cr3Fe(PO4)6
_symmetry_space_group_name_H-M   'P 1'
_cell_length_a   8.82019183
_cell_length_b   8.82019135
_cell_length_c   8.82019152
_cell_angle_alpha   58.38213291
_cell_angle_beta   58.38212764
_cell_angle_gamma   58.38213396
_symmetry_Int_Tables_number   1
_chemical_formula_structural   Cr3Fe(PO4)6
_chemical_formula_sum   'Cr3 Fe1 P6 O24'
_cell_volume   467.22898897
_cell_formula_units_Z   1
loop_
 _symmetry_equiv_pos_site_id
 _symmetry_equiv_pos_as_xyz
  1  'x, y, z'
loop_
 _atom_site_type_symbol
 _atom_site_label
 _atom_site_symmetry_multiplicity
 _atom_site_fract_x
 _atom_site_fract_y
 _atom_site_fract_z
 _atom_site_occupancy
  Cr  Cr0  1  0.142888  0.142888  0.142888  1
  Cr  Cr1  1  0.357258  0.357258  0.357258  1
  Cr  Cr2  1  0.642707  0.642707  0.642707  1
  Fe  Fe3  1  0.856938  0.856938  0.856938  1
  P  P4  1  0.034280  0.750584  0.464182  1
  P  P5  1  0.464182  0.034280  0.750584  1
  P  P6  1  0.750584  0.464182  0.034280  1
  P  P7  1  0.252152  0.532366  0.966743  1
  P  P8  1  0.532366  0.966743  0.252152  1
  P  P9  1  0.966743  0.252152  0.532366  1
  O  O10  1  0.136091  0.287002  0.501927  1
  O  O11  1  0.287002  0.501927  0.136091  1
  O  O12  1  0.062963  0.922844  0.280590  1
  O  O13  1  0.501927  0.136091  0.287002  1
  O  O14  1  0.218607  0.578760  0.429866  1
  O  O15  1  0.015077  0.772481  0.634528  1
  O  O16  1  0.280590  0.062963  0.922844  1
  O  O17  1  0.429866  0.218607  0.578760  1
  O  O18  1  0.578760  0.429866  0.218607  1
  O  O19  1  0.222762  0.361927  0.992113  1
  O  O20  1  0.080995  0.714323  0.942359  1
  O  O21  1  0.361927  0.992113  0.222762  1
  O  O22  1  0.634528  0.015077  0.772481  1
  O  O23  1  0.922844  0.280590  0.062963  1
  O  O24  1  0.772481  0.634528  0.015077  1
  O  O25  1  0.426172  0.559314  0.783895  1
  O  O26  1  0.559314  0.783895  0.426172  1
  O  O27  1  0.714323  0.942359  0.080995  1
  O  O28  1  0.992113  0.222762  0.361927  1
  O  O29  1  0.783895  0.426172  0.559314  1
  O  O30  1  0.491075  0.862964  0.721267  1
  O  O31  1  0.942359  0.080995  0.714323  1
  O  O32  1  0.721267  0.491075  0.862964  1
  O  O33  1  0.862964  0.721267  0.491075  1
