# generated using pymatgen
data_LiBi2(SO4)3
_symmetry_space_group_name_H-M   'P 1'
_cell_length_a   8.94160438
_cell_length_b   9.85980816
_cell_length_c   12.74922994
_cell_angle_alpha   90.00000000
_cell_angle_beta   89.52402446
_cell_angle_gamma   90.00000000
_symmetry_Int_Tables_number   1
_chemical_formula_structural   LiBi2(SO4)3
_chemical_formula_sum   'Li4 Bi8 S12 O48'
_cell_volume   1123.96524963
_cell_formula_units_Z   4
loop_
 _symmetry_equiv_pos_site_id
 _symmetry_equiv_pos_as_xyz
  1  'x, y, z'
loop_
 _atom_site_type_symbol
 _atom_site_label
 _atom_site_symmetry_multiplicity
 _atom_site_fract_x
 _atom_site_fract_y
 _atom_site_fract_z
 _atom_site_occupancy
  Li  Li0  1  0.187636  0.726549  0.821201  1
  Li  Li1  1  0.312364  0.226549  0.678799  1
  Li  Li2  1  0.687636  0.773451  0.321201  1
  Li  Li3  1  0.812364  0.273451  0.178799  1
  Bi  Bi4  1  0.241950  0.963637  0.383496  1
  Bi  Bi5  1  0.213991  0.550500  0.597529  1
  Bi  Bi6  1  0.258050  0.463637  0.116504  1
  Bi  Bi7  1  0.286009  0.050500  0.902471  1
  Bi  Bi8  1  0.713991  0.949500  0.097529  1
  Bi  Bi9  1  0.741950  0.536363  0.883496  1
  Bi  Bi10  1  0.786009  0.449500  0.402471  1
  Bi  Bi11  1  0.758050  0.036363  0.616504  1
  S  S12  1  0.056968  0.223089  0.505417  1
  S  S13  1  0.090145  0.122158  0.150337  1
  S  S14  1  0.112146  0.402614  0.843198  1
  S  S15  1  0.387854  0.902614  0.656802  1
  S  S16  1  0.409855  0.622158  0.349663  1
  S  S17  1  0.443032  0.723089  0.994583  1
  S  S18  1  0.556968  0.276911  0.005417  1
  S  S19  1  0.590145  0.377842  0.650337  1
  S  S20  1  0.612146  0.097386  0.343198  1
  S  S21  1  0.887854  0.597386  0.156802  1
  S  S22  1  0.909855  0.877842  0.849663  1
  S  S23  1  0.943032  0.776911  0.494583  1
  O  O24  1  0.978648  0.641087  0.542296  1
  O  O25  1  0.047504  0.611061  0.123903  1
  O  O26  1  0.070423  0.908815  0.825035  1
  O  O27  1  0.055645  0.801422  0.408639  1
  O  O28  1  0.044542  0.115242  0.422611  1
  O  O29  1  0.117002  0.265573  0.183648  1
  O  O30  1  0.115492  0.109678  0.035212  1
  O  O31  1  0.130863  0.532538  0.779848  1
  O  O32  1  0.209409  0.223429  0.546257  1
  O  O33  1  0.156555  0.286175  0.778325  1
  O  O34  1  0.207750  0.412568  0.937975  1
  O  O35  1  0.191128  0.026330  0.206085  1
  O  O36  1  0.308872  0.526330  0.293915  1
  O  O37  1  0.292250  0.912568  0.562025  1
  O  O38  1  0.343445  0.786175  0.721675  1
  O  O39  1  0.290590  0.723429  0.953743  1
  O  O40  1  0.384508  0.609678  0.464788  1
  O  O41  1  0.369137  0.032538  0.720152  1
  O  O42  1  0.382998  0.765573  0.316352  1
  O  O43  1  0.455458  0.615242  0.077389  1
  O  O44  1  0.444355  0.301422  0.091361  1
  O  O45  1  0.452496  0.111061  0.376097  1
  O  O46  1  0.429577  0.408815  0.674965  1
  O  O47  1  0.521352  0.141087  0.957704  1
  O  O48  1  0.478648  0.858913  0.042296  1
  O  O49  1  0.570423  0.591185  0.325035  1
  O  O50  1  0.547504  0.888939  0.623903  1
  O  O51  1  0.555645  0.698578  0.908639  1
  O  O52  1  0.544542  0.384758  0.922611  1
  O  O53  1  0.617002  0.234427  0.683648  1
  O  O54  1  0.630863  0.967462  0.279848  1
  O  O55  1  0.615492  0.390322  0.535212  1
  O  O56  1  0.709410  0.276571  0.046257  1
  O  O57  1  0.656555  0.213825  0.278325  1
  O  O58  1  0.707750  0.087432  0.437975  1
  O  O59  1  0.691128  0.473670  0.706085  1
  O  O60  1  0.808872  0.973670  0.793915  1
  O  O61  1  0.792250  0.587432  0.062025  1
  O  O62  1  0.843445  0.713825  0.221675  1
  O  O63  1  0.790590  0.776571  0.453743  1
  O  O64  1  0.869137  0.467462  0.220152  1
  O  O65  1  0.884508  0.890322  0.964788  1
  O  O66  1  0.882998  0.734427  0.816352  1
  O  O67  1  0.955458  0.884758  0.577389  1
  O  O68  1  0.944355  0.198578  0.591361  1
  O  O69  1  0.929577  0.091185  0.174965  1
  O  O70  1  0.952496  0.388939  0.876097  1
  O  O71  1  0.021352  0.358913  0.457704  1
