# generated using pymatgen
data_MnCr3O8
_symmetry_space_group_name_H-M   'P 1'
_cell_length_a   5.83705471
_cell_length_b   5.88945537
_cell_length_c   8.88549499
_cell_angle_alpha   89.99794816
_cell_angle_beta   90.00107493
_cell_angle_gamma   120.29741711
_symmetry_Int_Tables_number   1
_chemical_formula_structural   MnCr3O8
_chemical_formula_sum   'Mn2 Cr6 O16'
_cell_volume   263.73743067
_cell_formula_units_Z   2
loop_
 _symmetry_equiv_pos_site_id
 _symmetry_equiv_pos_as_xyz
  1  'x, y, z'
loop_
 _atom_site_type_symbol
 _atom_site_label
 _atom_site_symmetry_multiplicity
 _atom_site_fract_x
 _atom_site_fract_y
 _atom_site_fract_z
 _atom_site_occupancy
  Mn  Mn0  1  0.326255  0.663149  0.483377  1
  Mn  Mn1  1  0.673745  0.336894  0.983377  1
  Cr  Cr2  1  0.163247  0.832485  0.202228  1
  Cr  Cr3  1  0.163168  0.330779  0.202231  1
  Cr  Cr4  1  0.656930  0.828416  0.218560  1
  Cr  Cr5  1  0.343072  0.171486  0.718560  1
  Cr  Cr6  1  0.836753  0.669237  0.702229  1
  Cr  Cr7  1  0.836834  0.167613  0.702231  1
  O  O8  1  0.161207  0.822842  0.604823  1
  O  O9  1  0.049555  0.524780  0.336775  1
  O  O10  1  0.345462  0.672761  0.098100  1
  O  O11  1  0.989902  0.994948  0.310691  1
  O  O12  1  0.010098  0.005046  0.810691  1
  O  O13  1  0.161251  0.338376  0.604823  1
  O  O14  1  0.471809  0.950160  0.343165  1
  O  O15  1  0.471763  0.521628  0.343173  1
  O  O16  1  0.345943  0.173021  0.109916  1
  O  O17  1  0.654057  0.827079  0.609916  1
  O  O18  1  0.528190  0.478349  0.843164  1
  O  O19  1  0.528236  0.049865  0.843173  1
  O  O20  1  0.654538  0.327299  0.598100  1
  O  O21  1  0.838792  0.661635  0.104823  1
  O  O22  1  0.950445  0.475225  0.836775  1
  O  O23  1  0.838749  0.177125  0.104823  1
