# generated using pymatgen
data_Li2Fe(CuO3)2
_symmetry_space_group_name_H-M   'P 1'
_cell_length_a   2.96541435
_cell_length_b   6.61266220
_cell_length_c   5.96854585
_cell_angle_alpha   104.37444457
_cell_angle_beta   89.80526372
_cell_angle_gamma   103.02709438
_symmetry_Int_Tables_number   1
_chemical_formula_structural   Li2Fe(CuO3)2
_chemical_formula_sum   'Li2 Fe1 Cu2 O6'
_cell_volume   110.28558278
_cell_formula_units_Z   1
loop_
 _symmetry_equiv_pos_site_id
 _symmetry_equiv_pos_as_xyz
  1  'x, y, z'
loop_
 _atom_site_type_symbol
 _atom_site_label
 _atom_site_symmetry_multiplicity
 _atom_site_fract_x
 _atom_site_fract_y
 _atom_site_fract_z
 _atom_site_occupancy
  Li  Li0  1  0.668817  0.338159  0.847314  1
  Li  Li1  1  0.997944  0.995314  0.486143  1
  Fe  Fe2  1  0.333338  0.666688  0.666680  1
  Cu  Cu3  1  0.669791  0.338664  0.329190  1
  Cu  Cu4  1  0.996918  0.994697  0.004166  1
  O  O5  1  0.497132  0.994787  0.766462  1
  O  O6  1  0.828329  0.656648  0.445275  1
  O  O7  1  0.155494  0.310001  0.094043  1
  O  O8  1  0.838177  0.676376  0.887882  1
  O  O9  1  0.169438  0.338493  0.566785  1
  O  O10  1  0.511290  0.023506  0.239394  1
