# generated using pymatgen
data_LiMnNbO4
_symmetry_space_group_name_H-M   'P 1'
_cell_length_a   6.22612346
_cell_length_b   6.32382407
_cell_length_c   6.32382361
_cell_angle_alpha   59.02261228
_cell_angle_beta   60.50976404
_cell_angle_gamma   60.50976642
_symmetry_Int_Tables_number   1
_chemical_formula_structural   LiMnNbO4
_chemical_formula_sum   'Li2 Mn2 Nb2 O8'
_cell_volume   176.03841340
_cell_formula_units_Z   2
loop_
 _symmetry_equiv_pos_site_id
 _symmetry_equiv_pos_as_xyz
  1  'x, y, z'
loop_
 _atom_site_type_symbol
 _atom_site_label
 _atom_site_symmetry_multiplicity
 _atom_site_fract_x
 _atom_site_fract_y
 _atom_site_fract_z
 _atom_site_occupancy
  Li  Li0  1  0.103913  0.146087  0.146087  1
  Li  Li1  1  0.896087  0.853913  0.853913  1
  Mn  Mn2  1  0.500000  0.000000  0.500000  1
  Mn  Mn3  1  0.500000  0.500000  0.000000  1
  Nb  Nb4  1  0.000000  0.500000  0.500000  1
  Nb  Nb5  1  0.500000  0.500000  0.500000  1
  O  O6  1  0.232879  0.281705  0.281705  1
  O  O7  1  0.246681  0.285354  0.721285  1
  O  O8  1  0.246681  0.721285  0.285354  1
  O  O9  1  0.703711  0.281705  0.281705  1
  O  O10  1  0.296289  0.718295  0.718295  1
  O  O11  1  0.753319  0.714646  0.278715  1
  O  O12  1  0.753319  0.278715  0.714646  1
  O  O13  1  0.767121  0.718295  0.718295  1
