# generated using pymatgen
data_LiP4WO12
_symmetry_space_group_name_H-M   'P 1'
_cell_length_a   7.37294468
_cell_length_b   7.36990310
_cell_length_c   9.88445682
_cell_angle_alpha   80.66234374
_cell_angle_beta   70.44356125
_cell_angle_gamma   109.51747617
_symmetry_Int_Tables_number   1
_chemical_formula_structural   LiP4WO12
_chemical_formula_sum   'Li2 P8 W2 O24'
_cell_volume   453.75204777
_cell_formula_units_Z   2
loop_
 _symmetry_equiv_pos_site_id
 _symmetry_equiv_pos_as_xyz
  1  'x, y, z'
loop_
 _atom_site_type_symbol
 _atom_site_label
 _atom_site_symmetry_multiplicity
 _atom_site_fract_x
 _atom_site_fract_y
 _atom_site_fract_z
 _atom_site_occupancy
  Li  Li0  1  0.998886  0.498558  0.003261  1
  Li  Li1  1  0.999961  0.996410  0.500370  1
  P  P2  1  0.992349  0.688680  0.300881  1
  P  P3  1  0.262952  0.720737  0.478994  1
  P  P4  1  0.700678  0.742152  0.021347  1
  P  P5  1  0.512261  0.706659  0.798819  1
  P  P6  1  0.486743  0.293553  0.200962  1
  P  P7  1  0.299454  0.258229  0.978465  1
  P  P8  1  0.735718  0.277891  0.522720  1
  P  P9  1  0.007193  0.309651  0.700651  1
  W  W10  1  0.194117  0.942937  0.750624  1
  W  W11  1  0.804998  0.056129  0.250142  1
  O  O12  1  0.036801  0.650490  0.153981  1
  O  O13  1  0.129359  0.800744  0.584398  1
  O  O14  1  0.185476  0.695442  0.347255  1
  O  O15  1  0.497448  0.835294  0.410830  1
  O  O16  1  0.304059  0.720857  0.820433  1
  O  O17  1  0.215250  0.494644  0.563591  1
  O  O18  1  0.114111  0.286992  0.083269  1
  O  O19  1  0.745534  0.909409  0.089015  1
  O  O20  1  0.561935  0.779467  0.934574  1
  O  O21  1  0.695950  0.810193  0.651732  1
  O  O22  1  0.540445  0.533294  0.152966  1
  O  O23  1  0.042149  0.122442  0.680099  1
  O  O24  1  0.955877  0.875327  0.320905  1
  O  O25  1  0.459338  0.466940  0.846265  1
  O  O26  1  0.301518  0.191314  0.347347  1
  O  O27  1  0.439792  0.221309  0.064114  1
  O  O28  1  0.252998  0.090776  0.911187  1
  O  O29  1  0.886524  0.712687  0.918024  1
  O  O30  1  0.784926  0.504498  0.437993  1
  O  O31  1  0.694013  0.278365  0.181544  1
  O  O32  1  0.500734  0.166186  0.590741  1
  O  O33  1  0.814417  0.304050  0.653944  1
  O  O34  1  0.867149  0.196612  0.417312  1
  O  O35  1  0.964546  0.347570  0.847515  1
