# generated using pymatgen
data_Na2LiMnPCO7
_symmetry_space_group_name_H-M   'P 1'
_cell_length_a   8.84796740
_cell_length_b   6.84940530
_cell_length_c   10.23115891
_cell_angle_alpha   90.14373795
_cell_angle_beta   89.26714746
_cell_angle_gamma   89.66291234
_symmetry_Int_Tables_number   1
_chemical_formula_structural   Na2LiMnPCO7
_chemical_formula_sum   'Na8 Li4 Mn4 P4 C4 O28'
_cell_volume   619.97862480
_cell_formula_units_Z   4
loop_
 _symmetry_equiv_pos_site_id
 _symmetry_equiv_pos_as_xyz
  1  'x, y, z'
loop_
 _atom_site_type_symbol
 _atom_site_label
 _atom_site_symmetry_multiplicity
 _atom_site_fract_x
 _atom_site_fract_y
 _atom_site_fract_z
 _atom_site_occupancy
  Na  Na0  1  0.082942  0.246501  0.879039  1
  Na  Na1  1  0.256870  0.999686  0.622914  1
  Na  Na2  1  0.257395  0.500033  0.622610  1
  Na  Na3  1  0.257123  0.999744  0.126281  1
  Na  Na4  1  0.257153  0.500409  0.125769  1
  Na  Na5  1  0.744276  0.501682  0.874814  1
  Na  Na6  1  0.742947  0.499722  0.376714  1
  Na  Na7  1  0.743785  0.000834  0.376081  1
  Li  Li8  1  0.084420  0.249818  0.377047  1
  Li  Li9  1  0.729183  0.980371  0.883114  1
  Li  Li10  1  0.911338  0.756485  0.625070  1
  Li  Li11  1  0.909616  0.753439  0.124421  1
  Mn  Mn12  1  0.361767  0.748789  0.886521  1
  Mn  Mn13  1  0.361039  0.750491  0.388090  1
  Mn  Mn14  1  0.643214  0.248067  0.613364  1
  Mn  Mn15  1  0.642548  0.246919  0.109944  1
  P  P16  1  0.414209  0.244374  0.851708  1
  P  P17  1  0.404692  0.250286  0.352458  1
  P  P18  1  0.598224  0.753858  0.648446  1
  P  P19  1  0.595419  0.749237  0.145135  1
  C  C20  1  0.046292  0.758357  0.868147  1
  C  C21  1  0.052119  0.750221  0.366051  1
  C  C22  1  0.947554  0.249189  0.628760  1
  C  C23  1  0.941896  0.249358  0.138139  1
  O  O24  1  0.090533  0.251245  0.649220  1
  O  O25  1  0.085975  0.251218  0.155868  1
  O  O26  1  0.090437  0.750712  0.989191  1
  O  O27  1  0.094012  0.751211  0.488065  1
  O  O28  1  0.146793  0.748345  0.773212  1
  O  O29  1  0.154060  0.751035  0.272507  1
  O  O30  1  0.317430  0.065500  0.893252  1
  O  O31  1  0.326668  0.431162  0.896489  1
  O  O32  1  0.308269  0.069532  0.391751  1
  O  O33  1  0.307869  0.432508  0.391495  1
  O  O34  1  0.429512  0.248029  0.699622  1
  O  O35  1  0.437545  0.749663  0.587725  1
  O  O36  1  0.429899  0.249124  0.200791  1
  O  O37  1  0.435644  0.749840  0.083961  1
  O  O38  1  0.576833  0.232519  0.908309  1
  O  O39  1  0.577663  0.766057  0.800815  1
  O  O40  1  0.562632  0.250866  0.416542  1
  O  O41  1  0.572446  0.754226  0.296842  1
  O  O42  1  0.692902  0.569036  0.612259  1
  O  O43  1  0.693442  0.930745  0.602362  1
  O  O44  1  0.690683  0.566006  0.106777  1
  O  O45  1  0.692346  0.927144  0.100451  1
  O  O46  1  0.852501  0.247093  0.727845  1
  O  O47  1  0.850548  0.246893  0.238836  1
  O  O48  1  0.896617  0.249288  0.509597  1
  O  O49  1  0.884622  0.249644  0.021239  1
  O  O50  1  0.904751  0.774841  0.839356  1
  O  O51  1  0.911347  0.748646  0.334985  1
