# generated using pymatgen
data_Li2Mn3TeO8
_symmetry_space_group_name_H-M   'P 1'
_cell_length_a   6.06458089
_cell_length_b   6.06595107
_cell_length_c   9.89478266
_cell_angle_alpha   90.00350097
_cell_angle_beta   89.99825032
_cell_angle_gamma   120.00747738
_symmetry_Int_Tables_number   1
_chemical_formula_structural   Li2Mn3TeO8
_chemical_formula_sum   'Li4 Mn6 Te2 O16'
_cell_volume   315.21281019
_cell_formula_units_Z   2
loop_
 _symmetry_equiv_pos_site_id
 _symmetry_equiv_pos_as_xyz
  1  'x, y, z'
loop_
 _atom_site_type_symbol
 _atom_site_label
 _atom_site_symmetry_multiplicity
 _atom_site_fract_x
 _atom_site_fract_y
 _atom_site_fract_z
 _atom_site_occupancy
  Li  Li0  1  0.333346  0.666674  0.912046  1
  Li  Li1  1  0.999963  0.999972  0.981634  1
  Li  Li2  1  0.000037  0.000009  0.481634  1
  Li  Li3  1  0.666654  0.333327  0.412046  1
  Mn  Mn4  1  0.170673  0.829401  0.211195  1
  Mn  Mn5  1  0.170640  0.341293  0.211185  1
  Mn  Mn6  1  0.658656  0.829362  0.211260  1
  Mn  Mn7  1  0.341344  0.170706  0.711260  1
  Mn  Mn8  1  0.829327  0.658728  0.711195  1
  Mn  Mn9  1  0.829360  0.170653  0.711185  1
  Te  Te10  1  0.333244  0.666635  0.482923  1
  Te  Te11  1  0.666756  0.333391  0.982923  1
  O  O12  1  0.173215  0.826702  0.589217  1
  O  O13  1  0.038531  0.519245  0.357219  1
  O  O14  1  0.333157  0.666518  0.114198  1
  O  O15  1  0.000159  0.000156  0.290127  1
  O  O16  1  0.999841  0.999997  0.790127  1
  O  O17  1  0.173190  0.346538  0.589224  1
  O  O18  1  0.480659  0.961391  0.357244  1
  O  O19  1  0.480644  0.519262  0.357247  1
  O  O20  1  0.346565  0.173324  0.089201  1
  O  O21  1  0.653435  0.826759  0.589201  1
  O  O22  1  0.519341  0.480731  0.857244  1
  O  O23  1  0.519356  0.038618  0.857247  1
  O  O24  1  0.666843  0.333361  0.614198  1
  O  O25  1  0.826785  0.653487  0.089217  1
  O  O26  1  0.961469  0.480713  0.857219  1
  O  O27  1  0.826810  0.173347  0.089224  1
