# generated using pymatgen
data_Mn3SbO8
_symmetry_space_group_name_H-M   'P 1'
_cell_length_a   5.91069376
_cell_length_b   5.90996169
_cell_length_c   9.30089339
_cell_angle_alpha   89.97351228
_cell_angle_beta   90.01215515
_cell_angle_gamma   119.99605402
_symmetry_Int_Tables_number   1
_chemical_formula_structural   Mn3SbO8
_chemical_formula_sum   'Mn6 Sb2 O16'
_cell_volume   281.38156619
_cell_formula_units_Z   2
loop_
 _symmetry_equiv_pos_site_id
 _symmetry_equiv_pos_as_xyz
  1  'x, y, z'
loop_
 _atom_site_type_symbol
 _atom_site_label
 _atom_site_symmetry_multiplicity
 _atom_site_fract_x
 _atom_site_fract_y
 _atom_site_fract_z
 _atom_site_occupancy
  Mn  Mn0  1  0.167513  0.832419  0.211213  1
  Mn  Mn1  1  0.167488  0.334967  0.211107  1
  Mn  Mn2  1  0.664787  0.832394  0.211215  1
  Mn  Mn3  1  0.335207  0.167602  0.711215  1
  Mn  Mn4  1  0.832482  0.664897  0.711218  1
  Mn  Mn5  1  0.832507  0.167486  0.711112  1
  Sb  Sb6  1  0.333361  0.666612  0.489253  1
  Sb  Sb7  1  0.666626  0.333245  0.989259  1
  O  O8  1  0.166448  0.833674  0.599620  1
  O  O9  1  0.037540  0.519103  0.339571  1
  O  O10  1  0.333309  0.666710  0.111999  1
  O  O11  1  0.999948  0.999950  0.305991  1
  O  O12  1  0.000051  0.000002  0.805992  1
  O  O13  1  0.166700  0.332820  0.599595  1
  O  O14  1  0.481331  0.962587  0.339405  1
  O  O15  1  0.481604  0.519101  0.339380  1
  O  O16  1  0.332846  0.166199  0.099509  1
  O  O17  1  0.667162  0.833356  0.599511  1
  O  O18  1  0.518689  0.481277  0.839400  1
  O  O19  1  0.518417  0.037498  0.839376  1
  O  O20  1  0.666691  0.333401  0.611998  1
  O  O21  1  0.833540  0.667224  0.099620  1
  O  O22  1  0.962465  0.481568  0.839564  1
  O  O23  1  0.833289  0.166111  0.099595  1
