# generated using pymatgen
data_LiNi4P7O24
_symmetry_space_group_name_H-M   'P 1'
_cell_length_a   10.38173151
_cell_length_b   10.30450730
_cell_length_c   11.15482875
_cell_angle_alpha   113.06311380
_cell_angle_beta   110.05752653
_cell_angle_gamma   105.03995068
_symmetry_Int_Tables_number   1
_chemical_formula_structural   LiNi4P7O24
_chemical_formula_sum   'Li2 Ni8 P14 O48'
_cell_volume   918.04713538
_cell_formula_units_Z   2
loop_
 _symmetry_equiv_pos_site_id
 _symmetry_equiv_pos_as_xyz
  1  'x, y, z'
loop_
 _atom_site_type_symbol
 _atom_site_label
 _atom_site_symmetry_multiplicity
 _atom_site_fract_x
 _atom_site_fract_y
 _atom_site_fract_z
 _atom_site_occupancy
  Li  Li0  1  0.966725  0.573343  0.422371  1
  Li  Li1  1  0.033275  0.426657  0.577629  1
  Ni  Ni2  1  0.758999  0.154731  0.256115  1
  Ni  Ni3  1  0.923802  0.304062  0.923180  1
  Ni  Ni4  1  0.241001  0.845269  0.743885  1
  Ni  Ni5  1  0.372965  0.218353  0.880174  1
  Ni  Ni6  1  0.438064  0.589590  0.419142  1
  Ni  Ni7  1  0.627035  0.781647  0.119826  1
  Ni  Ni8  1  0.076198  0.695938  0.076820  1
  Ni  Ni9  1  0.561936  0.410410  0.580858  1
  P  P10  1  0.061489  0.322521  0.264591  1
  P  P11  1  0.389868  0.941440  0.122745  1
  P  P12  1  0.514589  0.289552  0.248386  1
  P  P13  1  0.237085  0.806775  0.433057  1
  P  P14  1  0.265061  0.132624  0.520298  1
  P  P15  1  0.762915  0.193225  0.566943  1
  P  P16  1  0.610132  0.058560  0.877255  1
  P  P17  1  0.485411  0.710448  0.751614  1
  P  P18  1  0.703578  0.488545  0.947573  1
  P  P19  1  0.011534  0.996917  0.774323  1
  P  P20  1  0.296423  0.511455  0.052427  1
  P  P21  1  0.988466  0.003083  0.225677  1
  P  P22  1  0.734939  0.867376  0.479702  1
  P  P23  1  0.938511  0.677479  0.735409  1
  O  O24  1  0.915742  0.940991  0.600383  1
  O  O25  1  0.589333  0.880867  0.787155  1
  O  O26  1  0.227300  0.445400  0.358580  1
  O  O27  1  0.299041  0.850426  0.168540  1
  O  O28  1  0.159017  0.787294  0.523615  1
  O  O29  1  0.350692  0.249335  0.493699  1
  O  O30  1  0.272142  0.360338  0.922184  1
  O  O31  1  0.939814  0.848766  0.787981  1
  O  O32  1  0.304643  0.876631  0.954039  1
  O  O33  1  0.683228  0.319953  0.303064  1
  O  O34  1  0.887229  0.300622  0.733478  1
  O  O35  1  0.453172  0.288005  0.103256  1
  O  O36  1  0.840983  0.212706  0.476385  1
  O  O37  1  0.556450  0.961016  0.175513  1
  O  O38  1  0.862432  0.491923  0.980230  1
  O  O39  1  0.700959  0.149574  0.831460  1
  O  O40  1  0.499690  0.595576  0.625544  1
  O  O41  1  0.546828  0.711995  0.896744  1
  O  O42  1  0.172507  0.020609  0.802493  1
  O  O43  1  0.722297  0.813697  0.329051  1
  O  O44  1  0.694546  0.013477  0.527593  1
  O  O45  1  0.084258  0.059009  0.399617  1
  O  O46  1  0.772700  0.554600  0.641420  1
  O  O47  1  0.002837  0.867775  0.125082  1
  O  O48  1  0.305454  0.986523  0.472407  1
  O  O49  1  0.695357  0.123369  0.045961  1
  O  O50  1  0.827493  0.979391  0.197507  1
  O  O51  1  0.375813  0.535743  0.207379  1
  O  O52  1  0.624718  0.227097  0.536246  1
  O  O53  1  0.277703  0.186303  0.670949  1
  O  O54  1  0.624187  0.464257  0.792621  1
  O  O55  1  0.316772  0.680047  0.696936  1
  O  O56  1  0.399940  0.637913  0.039892  1
  O  O57  1  0.977063  0.346326  0.356350  1
  O  O58  1  0.022937  0.653674  0.643650  1
  O  O59  1  0.977873  0.325757  0.124399  1
  O  O60  1  0.500310  0.404424  0.374456  1
  O  O61  1  0.443550  0.038984  0.824487  1
  O  O62  1  0.060186  0.151234  0.212019  1
  O  O63  1  0.997163  0.132225  0.874917  1
  O  O64  1  0.600060  0.362087  0.960108  1
  O  O65  1  0.727858  0.639662  0.077816  1
  O  O66  1  0.137568  0.508077  0.019770  1
  O  O67  1  0.022127  0.674243  0.875601  1
  O  O68  1  0.649308  0.750665  0.506301  1
  O  O69  1  0.410667  0.119133  0.212845  1
  O  O70  1  0.375282  0.772903  0.463753  1
  O  O71  1  0.112771  0.699378  0.266522  1
