# generated using pymatgen
data_Mn5O3F5
_symmetry_space_group_name_H-M   'P 1'
_cell_length_a   6.19234341
_cell_length_b   6.32867115
_cell_length_c   6.29993740
_cell_angle_alpha   119.84992680
_cell_angle_beta   89.99999918
_cell_angle_gamma   62.26533705
_symmetry_Int_Tables_number   1
_chemical_formula_structural   Mn5O3F5
_chemical_formula_sum   'Mn5 O3 F5'
_cell_volume   180.70076643
_cell_formula_units_Z   1
loop_
 _symmetry_equiv_pos_site_id
 _symmetry_equiv_pos_as_xyz
  1  'x, y, z'
loop_
 _atom_site_type_symbol
 _atom_site_label
 _atom_site_symmetry_multiplicity
 _atom_site_fract_x
 _atom_site_fract_y
 _atom_site_fract_z
 _atom_site_occupancy
  Mn  Mn0  1  0.124775  0.250740  0.625370  1
  Mn  Mn1  1  0.231649  0.546081  0.273041  1
  Mn  Mn2  1  0.636172  0.753097  0.615880  1
  Mn  Mn3  1  0.636172  0.753097  0.137216  1
  Mn  Mn4  1  0.990472  0.976988  0.988494  1
  O  O5  1  0.389060  0.788443  0.394222  1
  O  O6  1  0.854862  0.713939  0.856969  1
  O  O7  1  0.856220  0.735382  0.367690  1
  F  F8  1  0.367584  0.242543  0.876775  1
  F  F9  1  0.367584  0.242543  0.365768  1
  F  F10  1  0.389228  0.771592  0.885797  1
  F  F11  1  0.878037  0.257501  0.878455  1
  F  F12  1  0.878037  0.257501  0.379046  1
