# generated using pymatgen
data_Na5Fe2P2(CO7)2
_symmetry_space_group_name_H-M   'P 1'
_cell_length_a   8.97398004
_cell_length_b   10.46054305
_cell_length_c   6.68730983
_cell_angle_alpha   89.74233984
_cell_angle_beta   90.59874427
_cell_angle_gamma   89.73563317
_symmetry_Int_Tables_number   1
_chemical_formula_structural   Na5Fe2P2(CO7)2
_chemical_formula_sum   'Na10 Fe4 P4 C4 O28'
_cell_volume   627.70841704
_cell_formula_units_Z   2
loop_
 _symmetry_equiv_pos_site_id
 _symmetry_equiv_pos_as_xyz
  1  'x, y, z'
loop_
 _atom_site_type_symbol
 _atom_site_label
 _atom_site_symmetry_multiplicity
 _atom_site_fract_x
 _atom_site_fract_y
 _atom_site_fract_z
 _atom_site_occupancy
  Na  Na0  1  0.074700  0.386374  0.268030  1
  Na  Na1  1  0.089446  0.876094  0.260727  1
  Na  Na2  1  0.264669  0.120595  0.003002  1
  Na  Na3  1  0.265424  0.120882  0.495574  1
  Na  Na4  1  0.260949  0.629406  0.010933  1
  Na  Na5  1  0.739051  0.370594  0.989067  1
  Na  Na6  1  0.734576  0.879119  0.504426  1
  Na  Na7  1  0.735331  0.879405  0.996998  1
  Na  Na8  1  0.910554  0.123906  0.739273  1
  Na  Na9  1  0.925300  0.613626  0.731970  1
  Fe  Fe10  1  0.353148  0.398762  0.738144  1
  Fe  Fe11  1  0.347349  0.883798  0.746533  1
  Fe  Fe12  1  0.652651  0.116202  0.253467  1
  Fe  Fe13  1  0.646852  0.601238  0.261856  1
  P  P14  1  0.414872  0.355440  0.246648  1
  P  P15  1  0.423536  0.852208  0.247812  1
  P  P16  1  0.576464  0.147792  0.752188  1
  P  P17  1  0.585128  0.644560  0.753352  1
  C  C18  1  0.071560  0.363030  0.759807  1
  C  C19  1  0.054582  0.866855  0.754623  1
  C  C20  1  0.945418  0.133145  0.245377  1
  C  C21  1  0.928440  0.636970  0.240193  1
  O  O22  1  0.089477  0.142340  0.247723  1
  O  O23  1  0.068221  0.649278  0.228527  1
  O  O24  1  0.135618  0.475302  0.756797  1
  O  O25  1  0.117110  0.979674  0.744094  1
  O  O26  1  0.164711  0.265466  0.746117  1
  O  O27  1  0.137501  0.765332  0.763852  1
  O  O28  1  0.317369  0.395013  0.061116  1
  O  O29  1  0.323172  0.386690  0.438003  1
  O  O30  1  0.321352  0.881180  0.063891  1
  O  O31  1  0.325921  0.884087  0.430871  1
  O  O32  1  0.429298  0.072147  0.753286  1
  O  O33  1  0.434237  0.572288  0.755546  1
  O  O34  1  0.444576  0.209962  0.242633  1
  O  O35  1  0.467381  0.705624  0.241262  1
  O  O36  1  0.532619  0.294376  0.758738  1
  O  O37  1  0.555424  0.790038  0.757367  1
  O  O38  1  0.565763  0.427712  0.244454  1
  O  O39  1  0.570702  0.927853  0.246714  1
  O  O40  1  0.674079  0.115913  0.569129  1
  O  O41  1  0.678648  0.118820  0.936109  1
  O  O42  1  0.676828  0.613310  0.561997  1
  O  O43  1  0.682631  0.604987  0.938884  1
  O  O44  1  0.862499  0.234668  0.236148  1
  O  O45  1  0.835289  0.734534  0.253883  1
  O  O46  1  0.882890  0.020326  0.255906  1
  O  O47  1  0.864382  0.524698  0.243203  1
  O  O48  1  0.931779  0.350722  0.771473  1
  O  O49  1  0.910523  0.857660  0.752277  1
