# generated using pymatgen
data_Li3Sn(BO3)2
_symmetry_space_group_name_H-M   'P 1'
_cell_length_a   8.84904340
_cell_length_b   6.45529321
_cell_length_c   9.98152080
_cell_angle_alpha   90.00000000
_cell_angle_beta   64.59107011
_cell_angle_gamma   90.00000000
_symmetry_Int_Tables_number   1
_chemical_formula_structural   Li3Sn(BO3)2
_chemical_formula_sum   'Li12 Sn4 B8 O24'
_cell_volume   515.02207696
_cell_formula_units_Z   4
loop_
 _symmetry_equiv_pos_site_id
 _symmetry_equiv_pos_as_xyz
  1  'x, y, z'
loop_
 _atom_site_type_symbol
 _atom_site_label
 _atom_site_symmetry_multiplicity
 _atom_site_fract_x
 _atom_site_fract_y
 _atom_site_fract_z
 _atom_site_occupancy
  Li  Li0  1  0.126513  0.255909  0.479286  1
  Li  Li1  1  0.040275  0.562207  0.668817  1
  Li  Li2  1  0.373487  0.755909  0.020714  1
  Li  Li3  1  0.296642  0.778351  0.544079  1
  Li  Li4  1  0.540275  0.937793  0.168817  1
  Li  Li5  1  0.203358  0.278351  0.955921  1
  Li  Li6  1  0.796642  0.721649  0.044079  1
  Li  Li7  1  0.459725  0.062207  0.831183  1
  Li  Li8  1  0.703358  0.221649  0.455921  1
  Li  Li9  1  0.626513  0.244091  0.979286  1
  Li  Li10  1  0.959725  0.437793  0.331183  1
  Li  Li11  1  0.873487  0.744091  0.520714  1
  Sn  Sn12  1  0.008917  0.031699  0.800096  1
  Sn  Sn13  1  0.508917  0.468301  0.300096  1
  Sn  Sn14  1  0.491083  0.531699  0.699904  1
  Sn  Sn15  1  0.991083  0.968301  0.199904  1
  B  B16  1  0.282788  0.163501  0.177552  1
  B  B17  1  0.217213  0.663501  0.322448  1
  B  B18  1  0.163885  0.673021  0.888231  1
  B  B19  1  0.336115  0.173021  0.611769  1
  B  B20  1  0.663885  0.826979  0.388231  1
  B  B21  1  0.836115  0.326979  0.111769  1
  B  B22  1  0.782788  0.336499  0.677552  1
  B  B23  1  0.717212  0.836499  0.822448  1
  O  O24  1  0.068223  0.712981  0.314151  1
  O  O25  1  0.124284  0.205662  0.288675  1
  O  O26  1  0.289245  0.059471  0.052550  1
  O  O27  1  0.210755  0.559471  0.447450  1
  O  O28  1  0.375716  0.705662  0.211325  1
  O  O29  1  0.027676  0.791594  0.981939  1
  O  O30  1  0.234630  0.067591  0.560862  1
  O  O31  1  0.431777  0.212981  0.185849  1
  O  O32  1  0.201911  0.669729  0.739444  1
  O  O33  1  0.298089  0.169729  0.760556  1
  O  O34  1  0.265370  0.567591  0.939138  1
  O  O35  1  0.472324  0.291594  0.518061  1
  O  O36  1  0.527676  0.708406  0.481939  1
  O  O37  1  0.734630  0.432409  0.060862  1
  O  O38  1  0.701911  0.830271  0.239444  1
  O  O39  1  0.798089  0.330271  0.260556  1
  O  O40  1  0.568223  0.787019  0.814151  1
  O  O41  1  0.765370  0.932409  0.439138  1
  O  O42  1  0.972324  0.208406  0.018061  1
  O  O43  1  0.624284  0.294338  0.788675  1
  O  O44  1  0.789245  0.440530  0.552550  1
  O  O45  1  0.710755  0.940529  0.947450  1
  O  O46  1  0.875716  0.794338  0.711325  1
  O  O47  1  0.931777  0.287019  0.685849  1
