# generated using pymatgen
data_K4Li5Ti8(PO5)8
_symmetry_space_group_name_H-M   'P 1'
_cell_length_a   12.85995848
_cell_length_b   6.48347678
_cell_length_c   10.64119422
_cell_angle_alpha   90.16620578
_cell_angle_beta   90.50646907
_cell_angle_gamma   89.94433734
_symmetry_Int_Tables_number   1
_chemical_formula_structural   K4Li5Ti8(PO5)8
_chemical_formula_sum   'K4 Li5 Ti8 P8 O40'
_cell_volume   887.19463532
_cell_formula_units_Z   1
loop_
 _symmetry_equiv_pos_site_id
 _symmetry_equiv_pos_as_xyz
  1  'x, y, z'
loop_
 _atom_site_type_symbol
 _atom_site_label
 _atom_site_symmetry_multiplicity
 _atom_site_fract_x
 _atom_site_fract_y
 _atom_site_fract_z
 _atom_site_occupancy
  K  K0  1  0.093169  0.637002  0.099319  1
  K  K1  1  0.406015  0.136269  0.598630  1
  K  K2  1  0.589677  0.864843  0.101667  1
  K  K3  1  0.920622  0.383146  0.575366  1
  Li  Li4  1  0.107090  0.069030  0.993130  1
  Li  Li5  1  0.393978  0.568194  0.493550  1
  Li  Li6  1  0.602514  0.436452  0.001490  1
  Li  Li7  1  0.744091  0.231967  0.778685  1
  Li  Li8  1  0.896130  0.932104  0.492317  1
  Ti  Ti9  1  0.134919  0.998183  0.511753  1
  Ti  Ti10  1  0.247860  0.747394  0.763859  1
  Ti  Ti11  1  0.252422  0.246775  0.263385  1
  Ti  Ti12  1  0.365418  0.498203  0.013419  1
  Ti  Ti13  1  0.634826  0.500758  0.513736  1
  Ti  Ti14  1  0.748919  0.748265  0.762354  1
  Ti  Ti15  1  0.751948  0.252680  0.264131  1
  Ti  Ti16  1  0.865808  0.999777  0.013318  1
  P  P17  1  0.998944  0.843013  0.760873  1
  P  P18  1  0.184617  0.500971  0.511610  1
  P  P19  1  0.316501  0.001310  0.012465  1
  P  P20  1  0.501132  0.342435  0.262125  1
  P  P21  1  0.499328  0.658082  0.761655  1
  P  P22  1  0.684112  0.001667  0.513282  1
  P  P23  1  0.815730  0.494465  0.012102  1
  P  P24  1  0.000988  0.158452  0.260713  1
  O  O25  1  0.000575  0.975900  0.638988  1
  O  O26  1  0.006004  0.024146  0.381384  1
  O  O27  1  0.097258  0.300912  0.248439  1
  O  O28  1  0.096589  0.702247  0.772825  1
  O  O29  1  0.113104  0.688709  0.486129  1
  O  O30  1  0.117272  0.310452  0.538172  1
  O  O31  1  0.226410  0.044299  0.387582  1
  O  O32  1  0.224193  0.959494  0.640566  1
  O  O33  1  0.237993  0.042936  0.121749  1
  O  O34  1  0.239173  0.962589  0.900443  1
  O  O35  1  0.261087  0.462925  0.400600  1
  O  O36  1  0.262638  0.543433  0.622303  1
  O  O37  1  0.275621  0.458629  0.140006  1
  O  O38  1  0.274104  0.544294  0.886990  1
  O  O39  1  0.384806  0.811276  0.040257  1
  O  O40  1  0.386196  0.189906  0.987697  1
  O  O41  1  0.403863  0.202285  0.274259  1
  O  O42  1  0.402761  0.801578  0.749463  1
  O  O43  1  0.495350  0.523793  0.882265  1
  O  O44  1  0.497726  0.476019  0.140599  1
  O  O45  1  0.502817  0.524792  0.639817  1
  O  O46  1  0.507170  0.476823  0.382673  1
  O  O47  1  0.597564  0.198110  0.249188  1
  O  O48  1  0.597326  0.798403  0.773889  1
  O  O49  1  0.618079  0.807854  0.492125  1
  O  O50  1  0.613217  0.188670  0.538395  1
  O  O51  1  0.726387  0.455177  0.389488  1
  O  O52  1  0.727713  0.517724  0.647064  1
  O  O53  1  0.737352  0.458302  0.121239  1
  O  O54  1  0.739097  0.517327  0.896184  1
  O  O55  1  0.761399  0.036451  0.402853  1
  O  O56  1  0.760739  0.974762  0.628753  1
  O  O57  1  0.775534  0.040862  0.138834  1
  O  O58  1  0.772397  0.974304  0.881120  1
  O  O59  1  0.881482  0.688337  0.034256  1
  O  O60  1  0.886996  0.307882  0.987581  1
  O  O61  1  0.903655  0.300232  0.274498  1
  O  O62  1  0.902692  0.697540  0.748574  1
  O  O63  1  0.994063  0.975385  0.882132  1
  O  O64  1  0.996442  0.024103  0.139263  1
