# generated using pymatgen
data_Li4Mn2Si3O10
_symmetry_space_group_name_H-M   'P 1'
_cell_length_a   5.42036689
_cell_length_b   5.42036689
_cell_length_c   17.25267918
_cell_angle_alpha   81.60105153
_cell_angle_beta   98.39894847
_cell_angle_gamma   119.17641645
_symmetry_Int_Tables_number   1
_chemical_formula_structural   Li4Mn2Si3O10
_chemical_formula_sum   'Li8 Mn4 Si6 O20'
_cell_volume   436.18342068
_cell_formula_units_Z   2
loop_
 _symmetry_equiv_pos_site_id
 _symmetry_equiv_pos_as_xyz
  1  'x, y, z'
loop_
 _atom_site_type_symbol
 _atom_site_label
 _atom_site_symmetry_multiplicity
 _atom_site_fract_x
 _atom_site_fract_y
 _atom_site_fract_z
 _atom_site_occupancy
  Li  Li0  1  0.170600  0.678331  0.947188  1
  Li  Li1  1  0.420133  0.787288  0.769119  1
  Li  Li2  1  0.321669  0.829400  0.447188  1
  Li  Li3  1  0.212712  0.579867  0.269119  1
  Li  Li4  1  0.787288  0.420133  0.730881  1
  Li  Li5  1  0.678331  0.170600  0.552812  1
  Li  Li6  1  0.579867  0.212712  0.230881  1
  Li  Li7  1  0.829400  0.321669  0.052812  1
  Mn  Mn8  1  0.802648  0.013633  0.915942  1
  Mn  Mn9  1  0.986367  0.197352  0.415942  1
  Mn  Mn10  1  0.013633  0.802648  0.584058  1
  Mn  Mn11  1  0.197352  0.986367  0.084058  1
  Si  Si12  1  0.339916  0.464196  0.599400  1
  Si  Si13  1  0.116684  0.116684  0.750000  1
  Si  Si14  1  0.464196  0.339916  0.900600  1
  Si  Si15  1  0.535804  0.660084  0.099400  1
  Si  Si16  1  0.883316  0.883316  0.250000  1
  Si  Si17  1  0.660084  0.535804  0.400600  1
  O  O18  1  0.080745  0.841258  0.713012  1
  O  O19  1  0.158742  0.919255  0.213012  1
  O  O20  1  0.385779  0.778749  0.565183  1
  O  O21  1  0.431334  0.628627  0.888590  1
  O  O22  1  0.219526  0.410841  0.688184  1
  O  O23  1  0.219041  0.077445  0.951928  1
  O  O24  1  0.077445  0.219041  0.548072  1
  O  O25  1  0.221251  0.614221  0.065183  1
  O  O26  1  0.371373  0.568666  0.388590  1
  O  O27  1  0.410841  0.219526  0.811816  1
  O  O28  1  0.589159  0.780474  0.188184  1
  O  O29  1  0.628627  0.431334  0.611410  1
  O  O30  1  0.778749  0.385779  0.934817  1
  O  O31  1  0.922555  0.780959  0.451928  1
  O  O32  1  0.780959  0.922555  0.048072  1
  O  O33  1  0.780474  0.589159  0.311816  1
  O  O34  1  0.568666  0.371373  0.111410  1
  O  O35  1  0.614221  0.221251  0.434817  1
  O  O36  1  0.841258  0.080745  0.786988  1
  O  O37  1  0.919255  0.158742  0.286988  1
