# generated using pymatgen
data_Li4Mn2P4H3O16
_symmetry_space_group_name_H-M   'P 1'
_cell_length_a   5.00215447
_cell_length_b   8.24532324
_cell_length_c   7.67719226
_cell_angle_alpha   88.73509458
_cell_angle_beta   100.28625899
_cell_angle_gamma   87.66082580
_symmetry_Int_Tables_number   1
_chemical_formula_structural   Li4Mn2P4H3O16
_chemical_formula_sum   'Li4 Mn2 P4 H3 O16'
_cell_volume   311.15346119
_cell_formula_units_Z   1
loop_
 _symmetry_equiv_pos_site_id
 _symmetry_equiv_pos_as_xyz
  1  'x, y, z'
loop_
 _atom_site_type_symbol
 _atom_site_label
 _atom_site_symmetry_multiplicity
 _atom_site_fract_x
 _atom_site_fract_y
 _atom_site_fract_z
 _atom_site_occupancy
  Li  Li0  1  0.136343  0.348897  0.688877  1
  Li  Li1  1  0.378146  0.872629  0.842683  1
  Li  Li2  1  0.606161  0.124532  0.161181  1
  Li  Li3  1  0.862686  0.654557  0.311344  1
  Mn  Mn4  1  0.997337  0.997667  0.496240  1
  Mn  Mn5  1  0.498527  0.501974  0.002388  1
  P  P6  1  0.106572  0.328527  0.254713  1
  P  P7  1  0.363542  0.849348  0.235120  1
  P  P8  1  0.636019  0.152599  0.757859  1
  P  P9  1  0.890044  0.671474  0.745564  1
  H  H10  1  0.430408  0.421953  0.439960  1
  H  H11  1  0.563624  0.588522  0.553756  1
  H  H12  1  0.958050  0.014116  0.979656  1
  O  O13  1  0.113613  0.548112  0.827686  1
  O  O14  1  0.983573  0.169603  0.305073  1
  O  O15  1  0.139828  0.828771  0.356592  1
  O  O16  1  0.240718  0.405104  0.445509  1
  O  O17  1  0.410194  0.046744  0.670495  1
  O  O18  1  0.530106  0.322400  0.797341  1
  O  O19  1  0.240527  0.934175  0.055845  1
  O  O20  1  0.339458  0.305700  0.152957  1
  O  O21  1  0.657288  0.695043  0.847277  1
  O  O22  1  0.763907  0.068490  0.946191  1
  O  O23  1  0.468428  0.674281  0.207040  1
  O  O24  1  0.594796  0.949058  0.333197  1
  O  O25  1  0.758537  0.591060  0.556307  1
  O  O26  1  0.865196  0.169734  0.644694  1
  O  O27  1  0.009449  0.831280  0.693680  1
  O  O28  1  0.885800  0.453547  0.172674  1
