# generated using pymatgen
data_LiNbPO5
_symmetry_space_group_name_H-M   'P 1'
_cell_length_a   7.62284222
_cell_length_b   6.68805882
_cell_length_c   7.49876792
_cell_angle_alpha   90.00000000
_cell_angle_beta   90.00000000
_cell_angle_gamma   90.00000000
_symmetry_Int_Tables_number   1
_chemical_formula_structural   LiNbPO5
_chemical_formula_sum   'Li4 Nb4 P4 O20'
_cell_volume   382.30231465
_cell_formula_units_Z   4
loop_
 _symmetry_equiv_pos_site_id
 _symmetry_equiv_pos_as_xyz
  1  'x, y, z'
loop_
 _atom_site_type_symbol
 _atom_site_label
 _atom_site_symmetry_multiplicity
 _atom_site_fract_x
 _atom_site_fract_y
 _atom_site_fract_z
 _atom_site_occupancy
  Li  Li0  1  0.000000  0.000000  0.000000  1
  Li  Li1  1  0.000000  0.500000  0.000000  1
  Li  Li2  1  0.500000  0.000000  0.500000  1
  Li  Li3  1  0.500000  0.500000  0.500000  1
  Nb  Nb4  1  0.161482  0.250000  0.721417  1
  Nb  Nb5  1  0.338518  0.750000  0.221417  1
  Nb  Nb6  1  0.661482  0.250000  0.778583  1
  Nb  Nb7  1  0.838518  0.750000  0.278583  1
  P  P8  1  0.127781  0.750000  0.632973  1
  P  P9  1  0.372219  0.250000  0.132973  1
  P  P10  1  0.627781  0.750000  0.867027  1
  P  P11  1  0.872219  0.250000  0.367027  1
  O  O12  1  0.041479  0.250000  0.480217  1
  O  O13  1  0.096676  0.750000  0.162516  1
  O  O14  1  0.129622  0.563888  0.755821  1
  O  O15  1  0.129622  0.936112  0.755821  1
  O  O16  1  0.209061  0.250000  0.008968  1
  O  O17  1  0.290939  0.750000  0.508968  1
  O  O18  1  0.370378  0.063888  0.255821  1
  O  O19  1  0.370378  0.436112  0.255821  1
  O  O20  1  0.403324  0.250000  0.662516  1
  O  O21  1  0.458521  0.750000  0.980217  1
  O  O22  1  0.541479  0.250000  0.019783  1
  O  O23  1  0.596676  0.750000  0.337484  1
  O  O24  1  0.629622  0.563888  0.744179  1
  O  O25  1  0.629622  0.936112  0.744179  1
  O  O26  1  0.709061  0.250000  0.491032  1
  O  O27  1  0.790939  0.750000  0.991032  1
  O  O28  1  0.870378  0.063888  0.244179  1
  O  O29  1  0.870378  0.436112  0.244179  1
  O  O30  1  0.903324  0.250000  0.837484  1
  O  O31  1  0.958521  0.750000  0.519783  1
