# generated using pymatgen
data_Li2Co(NiO3)2
_symmetry_space_group_name_H-M   'P 1'
_cell_length_a   4.84962332
_cell_length_b   4.96017970
_cell_length_c   9.87211731
_cell_angle_alpha   89.78799228
_cell_angle_beta   89.89035333
_cell_angle_gamma   59.25294788
_symmetry_Int_Tables_number   1
_chemical_formula_structural   Li2Co(NiO3)2
_chemical_formula_sum   'Li4 Co2 Ni4 O12'
_cell_volume   204.09136661
_cell_formula_units_Z   2
loop_
 _symmetry_equiv_pos_site_id
 _symmetry_equiv_pos_as_xyz
  1  'x, y, z'
loop_
 _atom_site_type_symbol
 _atom_site_label
 _atom_site_symmetry_multiplicity
 _atom_site_fract_x
 _atom_site_fract_y
 _atom_site_fract_z
 _atom_site_occupancy
  Li  Li0  1  0.495570  0.146297  0.749905  1
  Li  Li1  1  0.506790  0.352413  0.247743  1
  Li  Li2  1  0.502273  0.643654  0.747831  1
  Li  Li3  1  0.487998  0.862233  0.249439  1
  Co  Co4  1  0.002524  0.997216  0.999257  1
  Co  Co5  1  0.003069  0.498395  0.498852  1
  Ni  Ni6  1  0.326244  0.335565  0.999391  1
  Ni  Ni7  1  0.326869  0.836330  0.498960  1
  Ni  Ni8  1  0.668950  0.165387  0.499052  1
  Ni  Ni9  1  0.668586  0.664192  0.999468  1
  O  O10  1  0.997635  0.170401  0.595986  1
  O  O11  1  0.997288  0.328643  0.096541  1
  O  O12  1  0.996929  0.670826  0.902271  1
  O  O13  1  0.342917  0.970855  0.892088  1
  O  O14  1  0.997224  0.832139  0.401805  1
  O  O15  1  0.343306  0.185825  0.391679  1
  O  O16  1  0.343193  0.471024  0.606314  1
  O  O17  1  0.342654  0.683287  0.106792  1
  O  O18  1  0.661500  0.996992  0.099524  1
  O  O19  1  0.661687  0.338621  0.899028  1
  O  O20  1  0.662347  0.499330  0.398696  1
  O  O21  1  0.662354  0.837978  0.599374  1
