# generated using pymatgen
data_Li2VBPO7
_symmetry_space_group_name_H-M   'P 1'
_cell_length_a   8.80945518
_cell_length_b   6.22686091
_cell_length_c   5.22364790
_cell_angle_alpha   90.00000000
_cell_angle_beta   86.02473167
_cell_angle_gamma   90.00000000
_symmetry_Int_Tables_number   1
_chemical_formula_structural   Li2VBPO7
_chemical_formula_sum   'Li4 V2 B2 P2 O14'
_cell_volume   285.85511573
_cell_formula_units_Z   2
loop_
 _symmetry_equiv_pos_site_id
 _symmetry_equiv_pos_as_xyz
  1  'x, y, z'
loop_
 _atom_site_type_symbol
 _atom_site_label
 _atom_site_symmetry_multiplicity
 _atom_site_fract_x
 _atom_site_fract_y
 _atom_site_fract_z
 _atom_site_occupancy
  Li  Li0  1  0.189377  0.523358  0.235967  1
  Li  Li1  1  0.189377  0.976642  0.235967  1
  Li  Li2  1  0.810623  0.476642  0.764033  1
  Li  Li3  1  0.810623  0.023358  0.764033  1
  V  V4  1  0.326858  0.750000  0.784323  1
  V  V5  1  0.673142  0.250000  0.215677  1
  B  B6  1  0.056031  0.750000  0.737739  1
  B  B7  1  0.943969  0.250000  0.262261  1
  P  P8  1  0.437584  0.250000  0.722859  1
  P  P9  1  0.562416  0.750000  0.277141  1
  O  O10  1  0.091601  0.250000  0.284641  1
  O  O11  1  0.131144  0.750000  0.972685  1
  O  O12  1  0.174731  0.750000  0.534079  1
  O  O13  1  0.336212  0.054197  0.805193  1
  O  O14  1  0.336212  0.445803  0.805193  1
  O  O15  1  0.413881  0.750000  0.139730  1
  O  O16  1  0.472531  0.250000  0.429642  1
  O  O17  1  0.527469  0.750000  0.570358  1
  O  O18  1  0.586119  0.250000  0.860270  1
  O  O19  1  0.663788  0.554197  0.194807  1
  O  O20  1  0.663788  0.945803  0.194807  1
  O  O21  1  0.825269  0.250000  0.465921  1
  O  O22  1  0.868856  0.250000  0.027315  1
  O  O23  1  0.908399  0.750000  0.715359  1
