# generated using pymatgen
data_Cr3(FeO6)2
_symmetry_space_group_name_H-M   'P 1'
_cell_length_a   8.76839603
_cell_length_b   12.40461183
_cell_length_c   9.15171650
_cell_angle_alpha   90.00000000
_cell_angle_beta   90.00000000
_cell_angle_gamma   90.61749381
_symmetry_Int_Tables_number   1
_chemical_formula_structural   Cr3(FeO6)2
_chemical_formula_sum   'Cr12 Fe8 O48'
_cell_volume   995.36111638
_cell_formula_units_Z   4
loop_
 _symmetry_equiv_pos_site_id
 _symmetry_equiv_pos_as_xyz
  1  'x, y, z'
loop_
 _atom_site_type_symbol
 _atom_site_label
 _atom_site_symmetry_multiplicity
 _atom_site_fract_x
 _atom_site_fract_y
 _atom_site_fract_z
 _atom_site_occupancy
  Cr  Cr0  1  0.037177  0.491226  0.247481  1
  Cr  Cr1  1  0.108440  0.850886  0.378178  1
  Cr  Cr2  1  0.113320  0.142339  0.113130  1
  Cr  Cr3  1  0.391560  0.649114  0.878178  1
  Cr  Cr4  1  0.386680  0.357661  0.613130  1
  Cr  Cr5  1  0.462823  0.008774  0.747481  1
  Cr  Cr6  1  0.537177  0.991226  0.252519  1
  Cr  Cr7  1  0.613320  0.642339  0.386870  1
  Cr  Cr8  1  0.608440  0.350886  0.121822  1
  Cr  Cr9  1  0.886680  0.857661  0.886870  1
  Cr  Cr10  1  0.891560  0.149114  0.621822  1
  Cr  Cr11  1  0.962823  0.508774  0.752519  1
  Fe  Fe12  1  0.252636  0.884287  0.026351  1
  Fe  Fe13  1  0.247364  0.615713  0.526351  1
  Fe  Fe14  1  0.252047  0.380374  0.968386  1
  Fe  Fe15  1  0.247953  0.119626  0.468386  1
  Fe  Fe16  1  0.752048  0.880374  0.531614  1
  Fe  Fe17  1  0.747952  0.619626  0.031614  1
  Fe  Fe18  1  0.752636  0.384287  0.473649  1
  Fe  Fe19  1  0.747364  0.115713  0.973649  1
  O  O20  1  0.069364  0.446195  0.875993  1
  O  O21  1  0.067362  0.900262  0.890754  1
  O  O22  1  0.066625  0.604384  0.669600  1
  O  O23  1  0.068142  0.183050  0.572125  1
  O  O24  1  0.100283  0.582823  0.366910  1
  O  O25  1  0.125815  0.838507  0.196578  1
  O  O26  1  0.139169  0.978751  0.423566  1
  O  O27  1  0.131265  0.246759  0.999898  1
  O  O28  1  0.165127  0.179506  0.281313  1
  O  O29  1  0.186377  0.436038  0.164695  1
  O  O30  1  0.231365  0.771510  0.465885  1
  O  O31  1  0.268635  0.728490  0.965885  1
  O  O32  1  0.228998  0.043773  0.060806  1
  O  O33  1  0.271002  0.456227  0.560806  1
  O  O34  1  0.313623  0.063962  0.664695  1
  O  O35  1  0.334873  0.320494  0.781313  1
  O  O36  1  0.360831  0.521249  0.923566  1
  O  O37  1  0.368735  0.253241  0.499898  1
  O  O38  1  0.374185  0.661493  0.696578  1
  O  O39  1  0.399717  0.917177  0.866910  1
  O  O40  1  0.433375  0.895616  0.169600  1
  O  O41  1  0.432638  0.599738  0.390754  1
  O  O42  1  0.431858  0.316950  0.072125  1
  O  O43  1  0.430636  0.053805  0.375993  1
  O  O44  1  0.569364  0.946195  0.624007  1
  O  O45  1  0.568142  0.683050  0.927875  1
  O  O46  1  0.567362  0.400262  0.609246  1
  O  O47  1  0.566625  0.104384  0.830400  1
  O  O48  1  0.600283  0.082823  0.133090  1
  O  O49  1  0.625815  0.338507  0.303422  1
  O  O50  1  0.631265  0.746759  0.500102  1
  O  O51  1  0.639169  0.478751  0.076434  1
  O  O52  1  0.665127  0.679506  0.218687  1
  O  O53  1  0.686377  0.936038  0.335305  1
  O  O54  1  0.728998  0.543773  0.439194  1
  O  O55  1  0.771002  0.956227  0.939194  1
  O  O56  1  0.731365  0.271510  0.034115  1
  O  O57  1  0.768635  0.228490  0.534115  1
  O  O58  1  0.813623  0.563962  0.835305  1
  O  O59  1  0.834873  0.820494  0.718687  1
  O  O60  1  0.868735  0.753241  0.000102  1
  O  O61  1  0.860831  0.021249  0.576434  1
  O  O62  1  0.874185  0.161493  0.803422  1
  O  O63  1  0.899717  0.417177  0.633090  1
  O  O64  1  0.931858  0.816950  0.427875  1
  O  O65  1  0.933375  0.395616  0.330400  1
  O  O66  1  0.932638  0.099738  0.109246  1
  O  O67  1  0.930636  0.553805  0.124007  1
