# generated using pymatgen
data_Li7Fe4(PO4)6
_symmetry_space_group_name_H-M   'P 1'
_cell_length_a   9.72909223
_cell_length_b   9.81248222
_cell_length_c   9.81248209
_cell_angle_alpha   87.61229752
_cell_angle_beta   87.73738125
_cell_angle_gamma   87.73737597
_symmetry_Int_Tables_number   1
_chemical_formula_structural   Li7Fe4(PO4)6
_chemical_formula_sum   'Li14 Fe8 P12 O48'
_cell_volume   934.54891876
_cell_formula_units_Z   2
loop_
 _symmetry_equiv_pos_site_id
 _symmetry_equiv_pos_as_xyz
  1  'x, y, z'
loop_
 _atom_site_type_symbol
 _atom_site_label
 _atom_site_symmetry_multiplicity
 _atom_site_fract_x
 _atom_site_fract_y
 _atom_site_fract_z
 _atom_site_occupancy
  Li  Li0  1  0.168439  0.036246  0.716553  1
  Li  Li1  1  0.281949  0.839854  0.966337  1
  Li  Li2  1  0.337436  0.787725  0.474565  1
  Li  Li3  1  0.970520  0.282800  0.827128  1
  Li  Li4  1  0.213480  0.524041  0.665023  1
  Li  Li5  1  0.528686  0.661805  0.216313  1
  Li  Li6  1  0.000393  0.002882  0.996354  1
  Li  Li7  1  0.500393  0.496354  0.502882  1
  Li  Li8  1  0.470520  0.327128  0.782800  1
  Li  Li9  1  0.028686  0.716313  0.161805  1
  Li  Li10  1  0.781949  0.466337  0.339854  1
  Li  Li11  1  0.668439  0.216553  0.536246  1
  Li  Li12  1  0.713480  0.165023  0.024041  1
  Li  Li13  1  0.837436  0.974565  0.287725  1
  Fe  Fe14  1  0.530554  0.969760  0.751339  1
  Fe  Fe15  1  0.248028  0.469964  0.030620  1
  Fe  Fe16  1  0.030554  0.251339  0.469760  1
  Fe  Fe17  1  0.742969  0.756954  0.749981  1
  Fe  Fe18  1  0.242969  0.249981  0.256954  1
  Fe  Fe19  1  0.748028  0.530620  0.969964  1
  Fe  Fe20  1  0.969430  0.750295  0.530261  1
  Fe  Fe21  1  0.469430  0.030261  0.250295  1
  P  P22  1  0.149212  0.945537  0.325047  1
  P  P23  1  0.048262  0.673080  0.851985  1
  P  P24  1  0.175055  0.555195  0.350448  1
  P  P25  1  0.447518  0.644976  0.827660  1
  P  P26  1  0.649212  0.825047  0.445537  1
  P  P27  1  0.675055  0.850448  0.055195  1
  P  P28  1  0.329096  0.150600  0.954060  1
  P  P29  1  0.352928  0.169936  0.549810  1
  P  P30  1  0.548262  0.351985  0.173080  1
  P  P31  1  0.829096  0.454060  0.650600  1
  P  P32  1  0.947518  0.327660  0.144976  1
  P  P33  1  0.852928  0.049810  0.669936  1
  O  O34  1  0.060374  0.896555  0.213560  1
  O  O35  1  0.110757  0.880233  0.468714  1
  O  O36  1  0.094808  0.784312  0.942011  1
  O  O37  1  0.086102  0.693528  0.696332  1
  O  O38  1  0.306460  0.909394  0.305166  1
  O  O39  1  0.029971  0.618979  0.389633  1
  O  O40  1  0.114799  0.530061  0.890494  1
  O  O41  1  0.408761  0.797710  0.806445  1
  O  O42  1  0.194498  0.591104  0.194084  1
  O  O43  1  0.610757  0.968714  0.380233  1
  O  O44  1  0.529971  0.889633  0.118979  1
  O  O45  1  0.287472  0.604210  0.439025  1
  O  O46  1  0.109653  0.333507  0.123304  1
  O  O47  1  0.172314  0.396850  0.376258  1
  O  O48  1  0.385612  0.603056  0.972020  1
  O  O49  1  0.672314  0.876258  0.896850  1
  O  O50  1  0.621811  0.827536  0.603880  1
  O  O51  1  0.403047  0.551645  0.716980  1
  O  O52  1  0.560374  0.713560  0.396555  1
  O  O53  1  0.787472  0.939025  0.104210  1
  O  O54  1  0.876933  0.887449  0.668314  1
  O  O55  1  0.609653  0.623304  0.833507  1
  O  O56  1  0.299096  0.306787  0.916707  1
  O  O57  1  0.199302  0.201371  0.588498  1
  O  O58  1  0.694498  0.694084  0.091104  1
  O  O59  1  0.806460  0.805166  0.409394  1
  O  O60  1  0.121811  0.103880  0.327536  1
  O  O61  1  0.387158  0.377051  0.168208  1
  O  O62  1  0.218448  0.057537  0.907062  1
  O  O63  1  0.450309  0.278680  0.594404  1
  O  O64  1  0.594808  0.442011  0.284312  1
  O  O65  1  0.330223  0.124541  0.114664  1
  O  O66  1  0.376933  0.168314  0.387449  1
  O  O67  1  0.614799  0.390494  0.030061  1
  O  O68  1  0.830223  0.614664  0.624541  1
  O  O69  1  0.887157  0.668208  0.877051  1
  O  O70  1  0.718448  0.407062  0.557537  1
  O  O71  1  0.473727  0.121600  0.891078  1
  O  O72  1  0.384608  0.025190  0.609342  1
  O  O73  1  0.799096  0.416707  0.806787  1
  O  O74  1  0.586102  0.196332  0.193528  1
  O  O75  1  0.885612  0.472020  0.103056  1
  O  O76  1  0.973727  0.391078  0.621600  1
  O  O77  1  0.699302  0.088498  0.701371  1
  O  O78  1  0.908761  0.306445  0.297710  1
  O  O79  1  0.903047  0.216980  0.051645  1
  O  O80  1  0.884608  0.109342  0.525190  1
  O  O81  1  0.950309  0.094404  0.778680  1
