# generated using pymatgen
data_Li5Cr3NiO8
_symmetry_space_group_name_H-M   'P 1'
_cell_length_a   8.48793732
_cell_length_b   8.48115300
_cell_length_c   8.48243780
_cell_angle_alpha   90.00317785
_cell_angle_beta   89.99712877
_cell_angle_gamma   89.99992880
_symmetry_Int_Tables_number   1
_chemical_formula_structural   Li5Cr3NiO8
_chemical_formula_sum   'Li20 Cr12 Ni4 O32'
_cell_volume   610.62944814
_cell_formula_units_Z   4
loop_
 _symmetry_equiv_pos_site_id
 _symmetry_equiv_pos_as_xyz
  1  'x, y, z'
loop_
 _atom_site_type_symbol
 _atom_site_label
 _atom_site_symmetry_multiplicity
 _atom_site_fract_x
 _atom_site_fract_y
 _atom_site_fract_z
 _atom_site_occupancy
  Li  Li0  1  0.862632  0.388698  0.375221  1
  Li  Li1  1  0.874393  0.640537  0.613422  1
  Li  Li2  1  0.888961  0.875475  0.862321  1
  Li  Li3  1  0.694425  0.693635  0.807267  1
  Li  Li4  1  0.801481  0.198122  0.199558  1
  Li  Li5  1  0.612827  0.375001  0.137769  1
  Li  Li6  1  0.624106  0.136236  0.390544  1
  Li  Li7  1  0.638966  0.887601  0.625381  1
  Li  Li8  1  0.444437  0.942632  0.443897  1
  Li  Li9  1  0.551773  0.551190  0.947617  1
  Li  Li10  1  0.362258  0.611552  0.124867  1
  Li  Li11  1  0.374318  0.359424  0.886422  1
  Li  Li12  1  0.388938  0.124557  0.637831  1
  Li  Li13  1  0.194502  0.306022  0.692854  1
  Li  Li14  1  0.302053  0.802531  0.300963  1
  Li  Li15  1  0.112754  0.625135  0.361712  1
  Li  Li16  1  0.124085  0.863799  0.109405  1
  Li  Li17  1  0.138632  0.112017  0.874759  1
  Li  Li18  1  0.943817  0.057852  0.056630  1
  Li  Li19  1  0.052201  0.448701  0.552425  1
  Cr  Cr20  1  0.876021  0.877246  0.372655  1
  Cr  Cr21  1  0.873842  0.624930  0.122616  1
  Cr  Cr22  1  0.878259  0.127179  0.624979  1
  Cr  Cr23  1  0.623801  0.627307  0.374801  1
  Cr  Cr24  1  0.626038  0.377277  0.627199  1
  Cr  Cr25  1  0.628295  0.124938  0.877094  1
  Cr  Cr26  1  0.373872  0.374992  0.377200  1
  Cr  Cr27  1  0.376060  0.122700  0.127189  1
  Cr  Cr28  1  0.378240  0.872777  0.874880  1
  Cr  Cr29  1  0.128246  0.875009  0.622760  1
  Cr  Cr30  1  0.123813  0.372611  0.125019  1
  Cr  Cr31  1  0.126013  0.622682  0.872652  1
  Ni  Ni32  1  0.876083  0.374950  0.874955  1
  Ni  Ni33  1  0.626027  0.874982  0.124835  1
  Ni  Ni34  1  0.376046  0.624992  0.624865  1
  Ni  Ni35  1  0.126041  0.124946  0.375013  1
  O  O36  1  0.884402  0.385530  0.125804  1
  O  O37  1  0.887191  0.625545  0.883152  1
  O  O38  1  0.884633  0.883652  0.616318  1
  O  O39  1  0.875513  0.116575  0.386061  1
  O  O40  1  0.876514  0.864115  0.132906  1
  O  O41  1  0.867749  0.124561  0.863769  1
  O  O42  1  0.867618  0.633194  0.366678  1
  O  O43  1  0.864800  0.366736  0.624439  1
  O  O44  1  0.634429  0.624189  0.135485  1
  O  O45  1  0.637161  0.866824  0.375474  1
  O  O46  1  0.634619  0.133560  0.633623  1
  O  O47  1  0.625541  0.363993  0.866597  1
  O  O48  1  0.626539  0.617020  0.613969  1
  O  O49  1  0.617702  0.383148  0.383085  1
  O  O50  1  0.617691  0.886083  0.874458  1
  O  O51  1  0.614859  0.125524  0.116548  1
  O  O52  1  0.384376  0.614399  0.374020  1
  O  O53  1  0.387172  0.374350  0.616677  1
  O  O54  1  0.384645  0.116314  0.883534  1
  O  O55  1  0.375521  0.883356  0.113786  1
  O  O56  1  0.376575  0.135799  0.366911  1
  O  O57  1  0.367702  0.875391  0.636100  1
  O  O58  1  0.367648  0.366781  0.133116  1
  O  O59  1  0.364717  0.633251  0.875372  1
  O  O60  1  0.134452  0.375747  0.364328  1
  O  O61  1  0.137185  0.133075  0.124394  1
  O  O62  1  0.134634  0.866354  0.866218  1
  O  O63  1  0.125550  0.636026  0.633259  1
  O  O64  1  0.126538  0.382927  0.885884  1
  O  O65  1  0.117666  0.113845  0.625393  1
  O  O66  1  0.117598  0.616738  0.116696  1
  O  O67  1  0.114788  0.874450  0.383268  1
