# generated using pymatgen
data_Li4Ti2Mn3Fe3O16
_symmetry_space_group_name_H-M   'P 1'
_cell_length_a   5.91676012
_cell_length_b   5.92874159
_cell_length_c   9.52694730
_cell_angle_alpha   90.73560998
_cell_angle_beta   89.20209434
_cell_angle_gamma   120.31017831
_symmetry_Int_Tables_number   1
_chemical_formula_structural   Li4Ti2Mn3Fe3O16
_chemical_formula_sum   'Li4 Ti2 Mn3 Fe3 O16'
_cell_volume   288.47820562
_cell_formula_units_Z   1
loop_
 _symmetry_equiv_pos_site_id
 _symmetry_equiv_pos_as_xyz
  1  'x, y, z'
loop_
 _atom_site_type_symbol
 _atom_site_label
 _atom_site_symmetry_multiplicity
 _atom_site_fract_x
 _atom_site_fract_y
 _atom_site_fract_z
 _atom_site_occupancy
  Li  Li0  1  0.340502  0.663861  0.897065  1
  Li  Li1  1  0.990198  0.996005  0.993759  1
  Li  Li2  1  0.992275  0.999676  0.494056  1
  Li  Li3  1  0.676118  0.338390  0.396688  1
  Ti  Ti4  1  0.328015  0.668883  0.495100  1
  Ti  Ti5  1  0.661883  0.332141  0.994359  1
  Mn  Mn6  1  0.656892  0.829862  0.216129  1
  Mn  Mn7  1  0.832474  0.662788  0.712908  1
  Mn  Mn8  1  0.828067  0.171133  0.716547  1
  Fe  Fe9  1  0.167789  0.828095  0.215049  1
  Fe  Fe10  1  0.167364  0.339212  0.214913  1
  Fe  Fe11  1  0.339433  0.173381  0.715974  1
  O  O12  1  0.169841  0.838442  0.591007  1
  O  O13  1  0.044327  0.523395  0.347018  1
  O  O14  1  0.343465  0.669828  0.105560  1
  O  O15  1  0.989390  0.995547  0.306161  1
  O  O16  1  0.987370  0.995406  0.804993  1
  O  O17  1  0.163882  0.336874  0.597319  1
  O  O18  1  0.492205  0.963999  0.337794  1
  O  O19  1  0.492535  0.531654  0.339487  1
  O  O20  1  0.334033  0.162473  0.089517  1
  O  O21  1  0.659340  0.850308  0.593057  1
  O  O22  1  0.524798  0.477893  0.846457  1
  O  O23  1  0.526867  0.035941  0.837510  1
  O  O24  1  0.679838  0.338896  0.608895  1
  O  O25  1  0.825410  0.662806  0.096378  1
  O  O26  1  0.963374  0.457465  0.845338  1
  O  O27  1  0.822317  0.155950  0.098807  1
