# generated using pymatgen
data_Co(SO4)2
_symmetry_space_group_name_H-M   'P 1'
_cell_length_a   8.96726280
_cell_length_b   8.96726255
_cell_length_c   8.96726314
_cell_angle_alpha   56.43386148
_cell_angle_beta   56.43386072
_cell_angle_gamma   56.43385981
_symmetry_Int_Tables_number   1
_chemical_formula_structural   Co(SO4)2
_chemical_formula_sum   'Co3 S6 O24'
_cell_volume   467.83588416
_cell_formula_units_Z   3
loop_
 _symmetry_equiv_pos_site_id
 _symmetry_equiv_pos_as_xyz
  1  'x, y, z'
loop_
 _atom_site_type_symbol
 _atom_site_label
 _atom_site_symmetry_multiplicity
 _atom_site_fract_x
 _atom_site_fract_y
 _atom_site_fract_z
 _atom_site_occupancy
  Co  Co0  1  0.355601  0.355601  0.355601  1
  Co  Co1  1  0.643262  0.643262  0.643262  1
  Co  Co2  1  0.850227  0.850227  0.850227  1
  S  S3  1  0.039952  0.743370  0.465968  1
  S  S4  1  0.465968  0.039952  0.743370  1
  S  S5  1  0.743370  0.465968  0.039952  1
  S  S6  1  0.250575  0.538827  0.961214  1
  S  S7  1  0.538827  0.961214  0.250575  1
  S  S8  1  0.961214  0.250575  0.538827  1
  O  O9  1  0.111732  0.298095  0.511761  1
  O  O10  1  0.298095  0.511761  0.111732  1
  O  O11  1  0.007589  0.943039  0.334729  1
  O  O12  1  0.511761  0.111732  0.298095  1
  O  O13  1  0.022877  0.725237  0.651003  1
  O  O14  1  0.233298  0.608598  0.389828  1
  O  O15  1  0.389828  0.233298  0.608598  1
  O  O16  1  0.334729  0.007589  0.943039  1
  O  O17  1  0.608598  0.389828  0.233298  1
  O  O18  1  0.052029  0.678738  0.979036  1
  O  O19  1  0.279671  0.357911  0.965975  1
  O  O20  1  0.357911  0.965975  0.279671  1
  O  O21  1  0.651003  0.022877  0.725237  1
  O  O22  1  0.725237  0.651003  0.022877  1
  O  O23  1  0.943039  0.334729  0.007589  1
  O  O24  1  0.383734  0.623115  0.765835  1
  O  O25  1  0.678738  0.979036  0.052029  1
  O  O26  1  0.623115  0.765835  0.383734  1
  O  O27  1  0.765835  0.383734  0.623115  1
  O  O28  1  0.965975  0.279671  0.357911  1
  O  O29  1  0.502752  0.892360  0.684421  1
  O  O30  1  0.979036  0.052029  0.678738  1
  O  O31  1  0.684421  0.502752  0.892360  1
  O  O32  1  0.892360  0.684421  0.502752  1
