# generated using pymatgen
data_Mn7O12
_symmetry_space_group_name_H-M   'P 1'
_cell_length_a   6.38808314
_cell_length_b   6.38794896
_cell_length_c   6.38807178
_cell_angle_alpha   109.46807537
_cell_angle_beta   109.46940907
_cell_angle_gamma   109.47521128
_symmetry_Int_Tables_number   1
_chemical_formula_structural   Mn7O12
_chemical_formula_sum   'Mn7 O12'
_cell_volume   200.67121091
_cell_formula_units_Z   1
loop_
 _symmetry_equiv_pos_site_id
 _symmetry_equiv_pos_as_xyz
  1  'x, y, z'
loop_
 _atom_site_type_symbol
 _atom_site_label
 _atom_site_symmetry_multiplicity
 _atom_site_fract_x
 _atom_site_fract_y
 _atom_site_fract_z
 _atom_site_occupancy
  Mn  Mn0  1  0.000012  0.500005  0.500012  1
  Mn  Mn1  1  0.999992  0.500019  0.000003  1
  Mn  Mn2  1  -0.000004  -0.000009  0.499980  1
  Mn  Mn3  1  0.499988  0.499999  0.500004  1
  Mn  Mn4  1  0.500014  0.000004  0.500006  1
  Mn  Mn5  1  0.499994  0.499998  0.000001  1
  Mn  Mn6  1  0.499984  -0.000012  0.999998  1
  O  O7  1  0.189796  0.872360  0.682565  1
  O  O8  1  0.127642  0.317436  0.810209  1
  O  O9  1  0.189807  0.507229  0.317424  1
  O  O10  1  0.317419  0.810172  0.127629  1
  O  O11  1  0.492763  0.682565  0.810204  1
  O  O12  1  0.317431  0.189771  0.507190  1
  O  O13  1  0.682572  0.810223  0.492805  1
  O  O14  1  0.507237  0.317431  0.189795  1
  O  O15  1  0.682587  0.189831  0.872374  1
  O  O16  1  0.810197  0.492770  0.682578  1
  O  O17  1  0.872359  0.682566  0.189787  1
  O  O18  1  0.810212  0.127642  0.317438  1
