# generated using pymatgen
data_Li2Mn2P4H3O16
_symmetry_space_group_name_H-M   'P 1'
_cell_length_a   4.88022956
_cell_length_b   8.10879534
_cell_length_c   7.52185201
_cell_angle_alpha   91.16445609
_cell_angle_beta   104.66741558
_cell_angle_gamma   87.60116903
_symmetry_Int_Tables_number   1
_chemical_formula_structural   Li2Mn2P4H3O16
_chemical_formula_sum   'Li2 Mn2 P4 H3 O16'
_cell_volume   287.69351966
_cell_formula_units_Z   1
loop_
 _symmetry_equiv_pos_site_id
 _symmetry_equiv_pos_as_xyz
  1  'x, y, z'
loop_
 _atom_site_type_symbol
 _atom_site_label
 _atom_site_symmetry_multiplicity
 _atom_site_fract_x
 _atom_site_fract_y
 _atom_site_fract_z
 _atom_site_occupancy
  Li  Li0  1  0.396315  0.876671  0.850717  1
  Li  Li1  1  0.591152  0.121069  0.151623  1
  Mn  Mn2  1  0.497636  0.500079  0.000957  1
  Mn  Mn3  1  0.000218  0.997669  0.498193  1
  P  P4  1  0.108945  0.330916  0.252508  1
  P  P5  1  0.376952  0.842493  0.239134  1
  P  P6  1  0.620442  0.158971  0.753954  1
  P  P7  1  0.887069  0.668813  0.748877  1
  H  H8  1  0.463236  0.398051  0.473285  1
  H  H9  1  0.538204  0.616052  0.519693  1
  H  H10  1  0.960194  0.012369  0.981217  1
  O  O11  1  0.999075  0.834043  0.695601  1
  O  O12  1  0.136387  0.556245  0.842863  1
  O  O13  1  0.178453  0.831249  0.370862  1
  O  O14  1  0.257943  0.422087  0.437798  1
  O  O15  1  0.366546  0.051279  0.661744  1
  O  O16  1  0.250540  0.941169  0.062410  1
  O  O17  1  0.323693  0.302103  0.137232  1
  O  O18  1  0.540470  0.331835  0.808124  1
  O  O19  1  0.458259  0.664941  0.195928  1
  O  O20  1  0.673395  0.698777  0.864647  1
  O  O21  1  0.750844  0.058922  0.938445  1
  O  O22  1  0.636317  0.947040  0.339516  1
  O  O23  1  0.736315  0.576494  0.564179  1
  O  O24  1  0.828157  0.166918  0.631323  1
  O  O25  1  0.860345  0.443622  0.156839  1
  O  O26  1  0.992912  0.166396  0.303915  1
