# generated using pymatgen
data_TiP2O7
_symmetry_space_group_name_H-M   'P 1'
_cell_length_a   8.80612916
_cell_length_b   5.20305285
_cell_length_c   12.22951433
_cell_angle_alpha   90.00000000
_cell_angle_beta   76.29451808
_cell_angle_gamma   90.00000000
_symmetry_Int_Tables_number   1
_chemical_formula_structural   TiP2O7
_chemical_formula_sum   'Ti4 P8 O28'
_cell_volume   544.38622759
_cell_formula_units_Z   4
loop_
 _symmetry_equiv_pos_site_id
 _symmetry_equiv_pos_as_xyz
  1  'x, y, z'
loop_
 _atom_site_type_symbol
 _atom_site_label
 _atom_site_symmetry_multiplicity
 _atom_site_fract_x
 _atom_site_fract_y
 _atom_site_fract_z
 _atom_site_occupancy
  Ti  Ti0  1  0.236414  0.240041  0.036928  1
  Ti  Ti1  1  0.263586  0.740041  0.463072  1
  Ti  Ti2  1  0.736414  0.259959  0.536928  1
  Ti  Ti3  1  0.763586  0.759959  0.963072  1
  P  P4  1  0.018658  0.755877  0.139773  1
  P  P5  1  0.071475  0.227779  0.613483  1
  P  P6  1  0.481342  0.255877  0.360227  1
  P  P7  1  0.571475  0.272221  0.113483  1
  P  P8  1  0.428525  0.727779  0.886517  1
  P  P9  1  0.518658  0.744123  0.639773  1
  P  P10  1  0.928525  0.772221  0.386517  1
  P  P11  1  0.981342  0.244123  0.860227  1
  O  O12  1  0.095906  0.018460  0.143425  1
  O  O13  1  0.137522  0.536291  0.121543  1
  O  O14  1  0.103773  0.733182  0.377682  1
  O  O15  1  0.123074  0.954569  0.578806  1
  O  O16  1  0.097427  0.279151  0.738003  1
  O  O17  1  0.174589  0.427397  0.541152  1
  O  O18  1  0.085450  0.255518  0.942734  1
  O  O19  1  0.396227  0.233182  0.122318  1
  O  O20  1  0.362478  0.036291  0.378457  1
  O  O21  1  0.404094  0.518460  0.356575  1
  O  O22  1  0.414550  0.755518  0.557266  1
  O  O23  1  0.623074  0.545431  0.078806  1
  O  O24  1  0.325411  0.927397  0.958848  1
  O  O25  1  0.402573  0.779151  0.761997  1
  O  O26  1  0.597427  0.220849  0.238003  1
  O  O27  1  0.674589  0.072603  0.041152  1
  O  O28  1  0.376926  0.454569  0.921194  1
  O  O29  1  0.585450  0.244481  0.442734  1
  O  O30  1  0.595906  0.481540  0.643425  1
  O  O31  1  0.637522  0.963709  0.621543  1
  O  O32  1  0.603773  0.766818  0.877682  1
  O  O33  1  0.914550  0.744482  0.057266  1
  O  O34  1  0.825411  0.572603  0.458848  1
  O  O35  1  0.902573  0.720849  0.261997  1
  O  O36  1  0.876926  0.045431  0.421194  1
  O  O37  1  0.896227  0.266818  0.622318  1
  O  O38  1  0.862478  0.463709  0.878457  1
  O  O39  1  0.904094  0.981540  0.856575  1
