# generated using pymatgen
data_V4(OF3)3
_symmetry_space_group_name_H-M   'P 1'
_cell_length_a   5.20880829
_cell_length_b   5.46347662
_cell_length_c   9.08707404
_cell_angle_alpha   73.71624045
_cell_angle_beta   91.11749002
_cell_angle_gamma   60.70141918
_symmetry_Int_Tables_number   1
_chemical_formula_structural   V4(OF3)3
_chemical_formula_sum   'V4 O3 F9'
_cell_volume   212.64747986
_cell_formula_units_Z   1
loop_
 _symmetry_equiv_pos_site_id
 _symmetry_equiv_pos_as_xyz
  1  'x, y, z'
loop_
 _atom_site_type_symbol
 _atom_site_label
 _atom_site_symmetry_multiplicity
 _atom_site_fract_x
 _atom_site_fract_y
 _atom_site_fract_z
 _atom_site_occupancy
  V  V0  1  0.726589  0.518015  0.237877  1
  V  V1  1  0.463853  0.021400  0.493958  1
  V  V2  1  0.272150  0.482523  0.762111  1
  V  V3  1  0.999311  0.000631  0.999293  1
  O  O4  1  0.428059  0.741037  0.091391  1
  O  O5  1  0.568859  0.259451  0.909814  1
  O  O6  1  0.097431  0.244368  0.415219  1
  F  F7  1  0.919553  0.748899  0.584766  1
  F  F8  1  0.924842  0.749430  0.174788  1
  F  F9  1  0.975052  0.252950  0.123546  1
  F  F10  1  0.541375  0.735169  0.383471  1
  F  F11  1  0.420584  0.756099  0.675330  1
  F  F12  1  0.595373  0.233523  0.329205  1
  F  F13  1  0.472402  0.255145  0.621602  1
  F  F14  1  0.021848  0.749529  0.874562  1
  F  F15  1  0.072718  0.251831  0.823066  1
