# generated using pymatgen
data_Na2FeO4
_symmetry_space_group_name_H-M   'P 1'
_cell_length_a   7.64514649
_cell_length_b   7.57162578
_cell_length_c   7.15767311
_cell_angle_alpha   90.00000000
_cell_angle_beta   90.00000000
_cell_angle_gamma   90.00000000
_symmetry_Int_Tables_number   1
_chemical_formula_structural   Na2FeO4
_chemical_formula_sum   'Na8 Fe4 O16'
_cell_volume   414.33041312
_cell_formula_units_Z   4
loop_
 _symmetry_equiv_pos_site_id
 _symmetry_equiv_pos_as_xyz
  1  'x, y, z'
loop_
 _atom_site_type_symbol
 _atom_site_label
 _atom_site_symmetry_multiplicity
 _atom_site_fract_x
 _atom_site_fract_y
 _atom_site_fract_z
 _atom_site_occupancy
  Na  Na0  1  0.000000  0.500000  0.258622  1
  Na  Na1  1  0.000000  0.500000  0.741378  1
  Na  Na2  1  0.266681  0.737074  0.000000  1
  Na  Na3  1  0.233319  0.237074  0.500000  1
  Na  Na4  1  0.500000  0.000000  0.241378  1
  Na  Na5  1  0.500000  0.000000  0.758622  1
  Na  Na6  1  0.766681  0.762926  0.500000  1
  Na  Na7  1  0.733319  0.262926  0.000000  1
  Fe  Fe8  1  0.148061  0.221345  0.000000  1
  Fe  Fe9  1  0.351939  0.721345  0.500000  1
  Fe  Fe10  1  0.648061  0.278655  0.500000  1
  Fe  Fe11  1  0.851939  0.778655  0.000000  1
  O  O12  1  0.022958  0.203319  0.188743  1
  O  O13  1  0.022958  0.203319  0.811257  1
  O  O14  1  0.193739  0.568371  0.500000  1
  O  O15  1  0.214668  0.431029  0.000000  1
  O  O16  1  0.285332  0.931029  0.500000  1
  O  O17  1  0.306261  0.068371  0.000000  1
  O  O18  1  0.477042  0.703319  0.311257  1
  O  O19  1  0.477042  0.703319  0.688743  1
  O  O20  1  0.522958  0.296681  0.311257  1
  O  O21  1  0.522958  0.296681  0.688743  1
  O  O22  1  0.693739  0.931629  0.000000  1
  O  O23  1  0.714668  0.068971  0.500000  1
  O  O24  1  0.785332  0.568971  0.000000  1
  O  O25  1  0.806261  0.431629  0.500000  1
  O  O26  1  0.977042  0.796681  0.188743  1
  O  O27  1  0.977042  0.796681  0.811257  1
