# generated using pymatgen
data_Li4CrNi3O8
_symmetry_space_group_name_H-M   'P 1'
_cell_length_a   10.14052722
_cell_length_b   10.14082346
_cell_length_c   14.35385058
_cell_angle_alpha   19.35427199
_cell_angle_beta   19.35434550
_cell_angle_gamma   33.34303274
_symmetry_Int_Tables_number   1
_chemical_formula_structural   Li4CrNi3O8
_chemical_formula_sum   'Li4 Cr1 Ni3 O8'
_cell_volume   140.51925557
_cell_formula_units_Z   1
loop_
 _symmetry_equiv_pos_site_id
 _symmetry_equiv_pos_as_xyz
  1  'x, y, z'
loop_
 _atom_site_type_symbol
 _atom_site_label
 _atom_site_symmetry_multiplicity
 _atom_site_fract_x
 _atom_site_fract_y
 _atom_site_fract_z
 _atom_site_occupancy
  Li  Li0  1  0.000000  0.999999  0.499999  1
  Li  Li1  1  -0.000002  0.499996  0.500005  1
  Li  Li2  1  0.499999  0.999999  0.500001  1
  Li  Li3  1  0.500000  0.500001  0.499999  1
  Cr  Cr4  1  -0.000020  0.000011  0.000013  1
  Ni  Ni5  1  0.000008  0.500009  0.999986  1
  Ni  Ni6  1  0.500001  0.999999  0.999998  1
  Ni  Ni7  1  0.499999  0.499993  0.000002  1
  O  O8  1  0.000586  0.000641  0.264677  1
  O  O9  1  0.000596  0.521605  0.241428  1
  O  O10  1  0.521575  0.000587  0.241450  1
  O  O11  1  0.999413  0.999362  0.735317  1
  O  O12  1  0.478449  0.478374  0.285125  1
  O  O13  1  0.999409  0.478399  0.758567  1
  O  O14  1  0.478443  0.999410  0.758543  1
  O  O15  1  0.521544  0.521613  0.714891  1
