# generated using pymatgen
data_Li3Mn3(FeO5)2
_symmetry_space_group_name_H-M   'P 1'
_cell_length_a   5.10228684
_cell_length_b   5.16359129
_cell_length_c   8.00687792
_cell_angle_alpha   109.79370323
_cell_angle_beta   101.52059208
_cell_angle_gamma   99.24606167
_symmetry_Int_Tables_number   1
_chemical_formula_structural   Li3Mn3(FeO5)2
_chemical_formula_sum   'Li3 Mn3 Fe2 O10'
_cell_volume   188.43044547
_cell_formula_units_Z   1
loop_
 _symmetry_equiv_pos_site_id
 _symmetry_equiv_pos_as_xyz
  1  'x, y, z'
loop_
 _atom_site_type_symbol
 _atom_site_label
 _atom_site_symmetry_multiplicity
 _atom_site_fract_x
 _atom_site_fract_y
 _atom_site_fract_z
 _atom_site_occupancy
  Li  Li0  1  0.209812  0.930844  0.414859  1
  Li  Li1  1  0.500000  0.500000  0.500000  1
  Li  Li2  1  0.790188  0.069156  0.585141  1
  Mn  Mn3  1  0.000000  0.500000  0.000000  1
  Mn  Mn4  1  0.694657  0.889819  0.898616  1
  Mn  Mn5  1  0.305343  0.110181  0.101384  1
  Fe  Fe6  1  0.116210  0.683906  0.685494  1
  Fe  Fe7  1  0.883790  0.316094  0.314506  1
  O  O8  1  0.033223  0.099319  0.871857  1
  O  O9  1  0.353844  0.744735  0.948321  1
  O  O10  1  0.115097  0.299702  0.530913  1
  O  O11  1  0.204548  0.461032  0.219545  1
  O  O12  1  0.478455  0.872615  0.674549  1
  O  O13  1  0.521545  0.127385  0.325451  1
  O  O14  1  0.795452  0.538968  0.780455  1
  O  O15  1  0.884903  0.700298  0.469087  1
  O  O16  1  0.646156  0.255265  0.051679  1
  O  O17  1  0.966777  0.900681  0.128143  1
