# generated using pymatgen
data_LiFe2(BO3)2
_symmetry_space_group_name_H-M   'P 1'
_cell_length_a   5.26374972
_cell_length_b   9.06588900
_cell_length_c   10.23735617
_cell_angle_alpha   89.99999978
_cell_angle_beta   91.72198131
_cell_angle_gamma   89.99999808
_symmetry_Int_Tables_number   1
_chemical_formula_structural   LiFe2(BO3)2
_chemical_formula_sum   'Li4 Fe8 B8 O24'
_cell_volume   488.31186042
_cell_formula_units_Z   4
loop_
 _symmetry_equiv_pos_site_id
 _symmetry_equiv_pos_as_xyz
  1  'x, y, z'
loop_
 _atom_site_type_symbol
 _atom_site_label
 _atom_site_symmetry_multiplicity
 _atom_site_fract_x
 _atom_site_fract_y
 _atom_site_fract_z
 _atom_site_occupancy
  Li  Li0  1  0.343024  0.008777  0.849097  1
  Li  Li1  1  0.659888  0.998758  0.108893  1
  Li  Li2  1  0.159888  0.501242  0.608893  1
  Li  Li3  1  0.843024  0.491223  0.349097  1
  Fe  Fe4  1  0.158218  0.165802  0.121250  1
  Fe  Fe5  1  0.836703  0.161484  0.369506  1
  Fe  Fe6  1  0.336703  0.338516  0.869506  1
  Fe  Fe7  1  0.658218  0.334198  0.621250  1
  Fe  Fe8  1  0.343402  0.667877  0.370712  1
  Fe  Fe9  1  0.156280  0.835911  0.621663  1
  Fe  Fe10  1  0.656280  0.664089  0.121663  1
  Fe  Fe11  1  0.843402  0.832123  0.870712  1
  B  B12  1  0.151923  0.168818  0.624682  1
  B  B13  1  0.324872  0.333447  0.374242  1
  B  B14  1  0.824872  0.166553  0.874242  1
  B  B15  1  0.651923  0.331182  0.124682  1
  B  B16  1  0.344196  0.668783  0.866581  1
  B  B17  1  0.671515  0.667162  0.618992  1
  B  B18  1  0.171515  0.832838  0.118992  1
  B  B19  1  0.844196  0.831217  0.366581  1
  O  O20  1  0.260164  0.034725  0.653844  1
  O  O21  1  0.085923  0.179435  0.901885  1
  O  O22  1  0.703803  0.034649  0.895739  1
  O  O23  1  0.189174  0.211950  0.328366  1
  O  O24  1  0.275583  0.299250  0.664325  1
  O  O25  1  0.775583  0.200750  0.164325  1
  O  O26  1  0.917415  0.179586  0.560770  1
  O  O27  1  0.417415  0.320414  0.060770  1
  O  O28  1  0.203803  0.465351  0.395739  1
  O  O29  1  0.585924  0.320565  0.401885  1
  O  O30  1  0.689174  0.288050  0.828366  1
  O  O31  1  0.232979  0.535798  0.840869  1
  O  O32  1  0.760164  0.465275  0.153844  1
  O  O33  1  0.303070  0.708680  0.163707  1
  O  O34  1  0.411118  0.679502  0.587913  1
  O  O35  1  0.794158  0.536010  0.602320  1
  O  O36  1  0.579048  0.680204  0.930795  1
  O  O37  1  0.079048  0.819796  0.430795  1
  O  O38  1  0.223972  0.799860  0.824604  1
  O  O39  1  0.723972  0.700140  0.324604  1
  O  O40  1  0.803070  0.791320  0.663707  1
  O  O41  1  0.294158  0.963990  0.102320  1
  O  O42  1  0.911118  0.820498  0.087913  1
  O  O43  1  0.732979  0.964202  0.340869  1
