# generated using pymatgen
data_Li3La7(FeO8)2
_symmetry_space_group_name_H-M   'P 1'
_cell_length_a   6.93413664
_cell_length_b   7.60216492
_cell_length_c   7.60216492
_cell_angle_alpha   89.73394048
_cell_angle_beta   74.13705033
_cell_angle_gamma   105.86294967
_symmetry_Int_Tables_number   1
_chemical_formula_structural   Li3La7(FeO8)2
_chemical_formula_sum   'Li3 La7 Fe2 O16'
_cell_volume   369.43681150
_cell_formula_units_Z   1
loop_
 _symmetry_equiv_pos_site_id
 _symmetry_equiv_pos_as_xyz
  1  'x, y, z'
loop_
 _atom_site_type_symbol
 _atom_site_label
 _atom_site_symmetry_multiplicity
 _atom_site_fract_x
 _atom_site_fract_y
 _atom_site_fract_z
 _atom_site_occupancy
  Li  Li0  1  0.018784  0.007175  0.997725  1
  Li  Li1  1  0.294074  0.323278  0.176722  1
  Li  Li2  1  0.018784  0.502275  0.492825  1
  La  La3  1  0.730775  0.184410  0.315590  1
  La  La4  1  0.712396  0.179693  0.823622  1
  La  La5  1  0.278230  0.318906  0.679287  1
  La  La6  1  0.717238  0.676334  0.823666  1
  La  La7  1  0.712396  0.676378  0.320307  1
  La  La8  1  0.278230  0.820713  0.181094  1
  La  La9  1  0.283445  0.821608  0.678392  1
  Fe  Fe10  1  0.004440  0.003532  0.496468  1
  Fe  Fe11  1  0.005515  0.498972  0.001028  1
  O  O12  1  0.350061  0.074415  0.425585  1
  O  O13  1  0.994877  0.996654  0.257894  1
  O  O14  1  0.993687  0.998224  0.743920  1
  O  O15  1  0.355895  0.070058  0.892052  1
  O  O16  1  0.638069  0.410462  0.591581  1
  O  O17  1  0.996205  0.256008  0.999161  1
  O  O18  1  0.994877  0.242106  0.503346  1
  O  O19  1  0.645174  0.412032  0.087968  1
  O  O20  1  0.347563  0.599921  0.900079  1
  O  O21  1  0.994693  0.498888  0.759226  1
  O  O22  1  0.996205  0.500839  0.243992  1
  O  O23  1  0.355895  0.607948  0.429942  1
  O  O24  1  0.638069  0.908419  0.089538  1
  O  O25  1  0.993687  0.756080  0.501776  1
  O  O26  1  0.656042  0.913902  0.586098  1
  O  O27  1  0.994693  0.740774  0.001112  1
