# generated using pymatgen
data_V2OF5
_symmetry_space_group_name_H-M   'P 1'
_cell_length_a   4.71597079
_cell_length_b   17.41434818
_cell_length_c   5.06356629
_cell_angle_alpha   90.00000000
_cell_angle_beta   90.00000000
_cell_angle_gamma   89.98993262
_symmetry_Int_Tables_number   1
_chemical_formula_structural   V2OF5
_chemical_formula_sum   'V8 O4 F20'
_cell_volume   415.84819759
_cell_formula_units_Z   4
loop_
 _symmetry_equiv_pos_site_id
 _symmetry_equiv_pos_as_xyz
  1  'x, y, z'
loop_
 _atom_site_type_symbol
 _atom_site_label
 _atom_site_symmetry_multiplicity
 _atom_site_fract_x
 _atom_site_fract_y
 _atom_site_fract_z
 _atom_site_occupancy
  V  V0  1  0.023574  0.288485  0.780021  1
  V  V1  1  0.999657  0.712686  0.248361  1
  V  V2  1  0.499657  0.212686  0.251639  1
  V  V3  1  0.471511  0.556756  0.232574  1
  V  V4  1  0.503900  0.450850  0.740221  1
  V  V5  1  0.523574  0.788485  0.719979  1
  V  V6  1  0.971511  0.056756  0.267426  1
  V  V7  1  0.003900  0.950850  0.759779  1
  O  O8  1  0.240902  0.281159  0.044444  1
  O  O9  1  0.245031  0.625884  0.137248  1
  O  O10  1  0.745031  0.125884  0.362752  1
  O  O11  1  0.740902  0.781159  0.455556  1
  F  F12  1  0.214105  0.035643  0.567545  1
  F  F13  1  0.241425  0.371041  0.606040  1
  F  F14  1  0.254350  0.126039  0.115288  1
  F  F15  1  0.238934  0.214080  0.566698  1
  F  F16  1  0.209921  0.969896  0.080078  1
  F  F17  1  0.249628  0.714881  0.574842  1
  F  F18  1  0.280036  0.535250  0.570465  1
  F  F19  1  0.284878  0.466539  0.068032  1
  F  F20  1  0.253206  0.782732  0.051297  1
  F  F21  1  0.262173  0.870156  0.613902  1
  F  F22  1  0.709921  0.469896  0.419922  1
  F  F23  1  0.749628  0.214881  0.925158  1
  F  F24  1  0.714105  0.535643  0.932455  1
  F  F25  1  0.780036  0.035250  0.929535  1
  F  F26  1  0.753206  0.282732  0.448703  1
  F  F27  1  0.762173  0.370156  0.886098  1
  F  F28  1  0.741425  0.871041  0.893960  1
  F  F29  1  0.754350  0.626039  0.384712  1
  F  F30  1  0.738934  0.714080  0.933302  1
  F  F31  1  0.784878  0.966539  0.431968  1
