# generated using pymatgen
data_LiMn3(OF3)2
_symmetry_space_group_name_H-M   'P 1'
_cell_length_a   5.40223477
_cell_length_b   6.14276737
_cell_length_c   5.28645836
_cell_angle_alpha   88.06944525
_cell_angle_beta   78.96384517
_cell_angle_gamma   69.17333988
_symmetry_Int_Tables_number   1
_chemical_formula_structural   LiMn3(OF3)2
_chemical_formula_sum   'Li1 Mn3 O2 F6'
_cell_volume   160.82157315
_cell_formula_units_Z   1
loop_
 _symmetry_equiv_pos_site_id
 _symmetry_equiv_pos_as_xyz
  1  'x, y, z'
loop_
 _atom_site_type_symbol
 _atom_site_label
 _atom_site_symmetry_multiplicity
 _atom_site_fract_x
 _atom_site_fract_y
 _atom_site_fract_z
 _atom_site_occupancy
  Li  Li0  1  0.970232  0.271171  0.532624  1
  Mn  Mn1  1  0.497536  0.371468  0.249005  1
  Mn  Mn2  1  0.499431  0.133338  0.749535  1
  Mn  Mn3  1  0.517739  0.870416  0.236278  1
  O  O4  1  0.328712  0.170469  0.115756  1
  O  O5  1  0.700860  0.105269  0.409612  1
  F  F6  1  0.222821  0.404445  0.615422  1
  F  F7  1  0.288951  0.667975  0.146480  1
  F  F8  1  0.293298  0.955301  0.578000  1
  F  F9  1  0.712699  0.552638  0.345906  1
  F  F10  1  0.728684  0.294882  0.856782  1
  F  F11  1  0.724961  0.821336  0.895310  1
