# generated using pymatgen
data_Li2Fe(PO4)2
_symmetry_space_group_name_H-M   'P 1'
_cell_length_a   7.59244289
_cell_length_b   8.03984192
_cell_length_c   5.13569172
_cell_angle_alpha   90.00000000
_cell_angle_beta   92.91518631
_cell_angle_gamma   90.00000000
_symmetry_Int_Tables_number   1
_chemical_formula_structural   Li2Fe(PO4)2
_chemical_formula_sum   'Li4 Fe2 P4 O16'
_cell_volume   313.08741494
_cell_formula_units_Z   2
loop_
 _symmetry_equiv_pos_site_id
 _symmetry_equiv_pos_as_xyz
  1  'x, y, z'
loop_
 _atom_site_type_symbol
 _atom_site_label
 _atom_site_symmetry_multiplicity
 _atom_site_fract_x
 _atom_site_fract_y
 _atom_site_fract_z
 _atom_site_occupancy
  Li  Li0  1  0.095494  0.361330  0.085224  1
  Li  Li1  1  0.404506  0.861330  0.414776  1
  Li  Li2  1  0.595494  0.138670  0.585224  1
  Li  Li3  1  0.904506  0.638670  0.914776  1
  Fe  Fe4  1  0.000000  0.000000  0.000000  1
  Fe  Fe5  1  0.500000  0.500000  0.500000  1
  P  P6  1  0.193077  0.195783  0.527782  1
  P  P7  1  0.306923  0.695783  0.972218  1
  P  P8  1  0.693077  0.304217  0.027782  1
  P  P9  1  0.806923  0.804217  0.472218  1
  O  O10  1  0.943588  0.856242  0.694019  1
  O  O11  1  0.101673  0.192049  0.791446  1
  O  O12  1  0.151755  0.573835  0.953120  1
  O  O13  1  0.254854  0.373559  0.458459  1
  O  O14  1  0.245146  0.873559  0.041541  1
  O  O15  1  0.348245  0.073835  0.546880  1
  O  O16  1  0.398327  0.692049  0.708554  1
  O  O17  1  0.556412  0.356242  0.805981  1
  O  O18  1  0.443588  0.643758  0.194020  1
  O  O19  1  0.601673  0.307951  0.291446  1
  O  O20  1  0.651755  0.926165  0.453120  1
  O  O21  1  0.754854  0.126441  0.958459  1
  O  O22  1  0.745146  0.626441  0.541541  1
  O  O23  1  0.848245  0.426165  0.046880  1
  O  O24  1  0.898327  0.807951  0.208554  1
  O  O25  1  0.056412  0.143758  0.305980  1
