# generated using pymatgen
data_Li3Ti3Fe(PO4)6
_symmetry_space_group_name_H-M   'P 1'
_cell_length_a   8.66970262
_cell_length_b   8.73841000
_cell_length_c   8.71480733
_cell_angle_alpha   60.02468121
_cell_angle_beta   60.07109345
_cell_angle_gamma   60.44016017
_symmetry_Int_Tables_number   1
_chemical_formula_structural   Li3Ti3Fe(PO4)6
_chemical_formula_sum   'Li3 Ti3 Fe1 P6 O24'
_cell_volume   468.72620512
_cell_formula_units_Z   1
loop_
 _symmetry_equiv_pos_site_id
 _symmetry_equiv_pos_as_xyz
  1  'x, y, z'
loop_
 _atom_site_type_symbol
 _atom_site_label
 _atom_site_symmetry_multiplicity
 _atom_site_fract_x
 _atom_site_fract_y
 _atom_site_fract_z
 _atom_site_occupancy
  Li  Li0  1  0.269270  0.873588  0.663578  1
  Li  Li1  1  0.787055  0.200557  0.934966  1
  Li  Li2  1  0.943523  0.780112  0.199011  1
  Ti  Ti3  1  0.139690  0.145515  0.139259  1
  Ti  Ti4  1  0.362894  0.367481  0.368514  1
  Ti  Ti5  1  0.852158  0.856295  0.856121  1
  Fe  Fe6  1  0.641183  0.635447  0.641437  1
  P  P7  1  0.041702  0.751636  0.463354  1
  P  P8  1  0.454955  0.038337  0.751224  1
  P  P9  1  0.745878  0.461904  0.043898  1
  P  P10  1  0.243068  0.541572  0.972855  1
  P  P11  1  0.533343  0.978311  0.248577  1
  P  P12  1  0.966891  0.250255  0.535612  1
  O  O13  1  0.141280  0.283340  0.503645  1
  O  O14  1  0.281409  0.513214  0.140752  1
  O  O15  1  0.070411  0.913723  0.274746  1
  O  O16  1  0.509898  0.150457  0.275873  1
  O  O17  1  0.008545  0.799237  0.629435  1
  O  O18  1  0.219765  0.579994  0.450958  1
  O  O19  1  0.274906  0.075040  0.917850  1
  O  O20  1  0.447071  0.219876  0.580925  1
  O  O21  1  0.189962  0.379003  0.011156  1
  O  O22  1  0.577696  0.452152  0.227015  1
  O  O23  1  0.072042  0.729615  0.951461  1
  O  O24  1  0.374000  0.016906  0.190367  1
  O  O25  1  0.631945  0.987009  0.796158  1
  O  O26  1  0.909087  0.274692  0.070027  1
  O  O27  1  0.400414  0.575823  0.782101  1
  O  O28  1  0.800163  0.629177  0.995637  1
  O  O29  1  0.539201  0.801962  0.423213  1
  O  O30  1  0.729181  0.946676  0.084686  1
  O  O31  1  0.785684  0.415724  0.560038  1
  O  O32  1  0.002413  0.194293  0.376881  1
  O  O33  1  0.469908  0.878088  0.712959  1
  O  O34  1  0.943339  0.081441  0.727401  1
  O  O35  1  0.702388  0.481215  0.882344  1
  O  O36  1  0.872682  0.715334  0.486966  1
