# generated using pymatgen
data_RbLiV(PO4)2
_symmetry_space_group_name_H-M   'P 1'
_cell_length_a   4.93873647
_cell_length_b   9.02814259
_cell_length_c   16.36741832
_cell_angle_alpha   90.00040738
_cell_angle_beta   84.67240659
_cell_angle_gamma   89.99995836
_symmetry_Int_Tables_number   1
_chemical_formula_structural   RbLiV(PO4)2
_chemical_formula_sum   'Rb4 Li4 V4 P8 O32'
_cell_volume   726.63158462
_cell_formula_units_Z   4
loop_
 _symmetry_equiv_pos_site_id
 _symmetry_equiv_pos_as_xyz
  1  'x, y, z'
loop_
 _atom_site_type_symbol
 _atom_site_label
 _atom_site_symmetry_multiplicity
 _atom_site_fract_x
 _atom_site_fract_y
 _atom_site_fract_z
 _atom_site_occupancy
  Rb  Rb0  1  0.403125  0.135983  0.410170  1
  Rb  Rb1  1  0.596879  0.635983  0.089829  1
  Rb  Rb2  1  0.403124  0.364015  0.910171  1
  Rb  Rb3  1  0.596876  0.864010  0.589830  1
  Li  Li4  1  0.254999  0.985313  0.017338  1
  Li  Li5  1  0.255027  0.514676  0.517340  1
  Li  Li6  1  0.744967  0.485329  0.482662  1
  Li  Li7  1  0.744976  0.014679  0.982664  1
  V  V8  1  0.404332  0.069200  0.168457  1
  V  V9  1  0.404350  0.430791  0.668450  1
  V  V10  1  0.595646  0.569206  0.331547  1
  V  V11  1  0.595655  0.930801  0.831544  1
  P  P12  1  0.077887  0.777851  0.405807  1
  P  P13  1  0.141319  0.385159  0.240269  1
  P  P14  1  0.077892  0.722148  0.905813  1
  P  P15  1  0.141325  0.114846  0.740268  1
  P  P16  1  0.858678  0.885164  0.259732  1
  P  P17  1  0.922104  0.277853  0.094185  1
  P  P18  1  0.858685  0.614835  0.759731  1
  P  P19  1  0.922108  0.222150  0.594194  1
  O  O20  1  0.061866  0.409523  0.146320  1
  O  O21  1  0.099151  0.924161  0.198812  1
  O  O22  1  0.142387  0.154428  0.081551  1
  O  O23  1  0.061876  0.090473  0.646317  1
  O  O24  1  0.140947  0.842165  0.486877  1
  O  O25  1  0.213154  0.220086  0.248091  1
  O  O26  1  0.099170  0.575836  0.698811  1
  O  O27  1  0.142391  0.345564  0.581553  1
  O  O28  1  0.140945  0.657845  0.986875  1
  O  O29  1  0.213160  0.279920  0.748086  1
  O  O30  1  0.325134  0.731292  0.349124  1
  O  O31  1  0.384713  0.489810  0.243613  1
  O  O32  1  0.454568  0.467738  0.413347  1
  O  O33  1  0.325149  0.768714  0.849124  1
  O  O34  1  0.384717  0.010195  0.743612  1
  O  O35  1  0.545410  0.967727  0.086651  1
  O  O36  1  0.454567  0.032264  0.913348  1
  O  O37  1  0.615282  0.989807  0.256388  1
  O  O38  1  0.674842  0.231280  0.150874  1
  O  O39  1  0.545419  0.532259  0.586643  1
  O  O40  1  0.615293  0.510191  0.756383  1
  O  O41  1  0.674860  0.268709  0.650873  1
  O  O42  1  0.786840  0.720083  0.251911  1
  O  O43  1  0.859061  0.342160  0.013129  1
  O  O44  1  0.857597  0.654439  0.418447  1
  O  O45  1  0.900837  0.424165  0.301193  1
  O  O46  1  0.786852  0.779916  0.751912  1
  O  O47  1  0.859054  0.157832  0.513121  1
  O  O48  1  0.938119  0.909530  0.353684  1
  O  O49  1  0.857607  0.845570  0.918450  1
  O  O50  1  0.900839  0.075847  0.801189  1
  O  O51  1  0.938127  0.590473  0.853682  1
