# generated using pymatgen
data_V2OF5
_symmetry_space_group_name_H-M   'P 1'
_cell_length_a   8.55211425
_cell_length_b   8.55214517
_cell_length_c   4.62184802
_cell_angle_alpha   90.00459597
_cell_angle_beta   90.00496679
_cell_angle_gamma   59.99758534
_symmetry_Int_Tables_number   1
_chemical_formula_structural   V2OF5
_chemical_formula_sum   'V6 O3 F15'
_cell_volume   292.74149096
_cell_formula_units_Z   3
loop_
 _symmetry_equiv_pos_site_id
 _symmetry_equiv_pos_as_xyz
  1  'x, y, z'
loop_
 _atom_site_type_symbol
 _atom_site_label
 _atom_site_symmetry_multiplicity
 _atom_site_fract_x
 _atom_site_fract_y
 _atom_site_fract_z
 _atom_site_occupancy
  V  V0  1  0.334863  0.667193  0.000120  1
  V  V1  1  0.324182  0.990571  0.523453  1
  V  V2  1  0.685429  0.324075  0.523545  1
  V  V3  1  0.667031  0.997947  0.000148  1
  V  V4  1  0.997843  0.334844  0.999943  1
  V  V5  1  0.990743  0.685090  0.523218  1
  O  O6  1  0.249597  0.881883  0.741677  1
  O  O7  1  0.868291  0.249671  0.741415  1
  O  O8  1  0.881781  0.868575  0.741886  1
  F  F9  1  0.122394  0.115451  0.251987  1
  F  F10  1  0.082480  0.465850  0.257949  1
  F  F11  1  0.215613  0.217658  0.748562  1
  F  F12  1  0.451768  0.082604  0.258157  1
  F  F13  1  0.115277  0.762562  0.252156  1
  F  F14  1  0.217803  0.566810  0.748549  1
  F  F15  1  0.566755  0.215336  0.748417  1
  F  F16  1  0.465596  0.451737  0.258083  1
  F  F17  1  0.762398  0.122302  0.252103  1
  F  F18  1  0.434599  0.782212  0.250162  1
  F  F19  1  0.549437  0.548361  0.744207  1
  F  F20  1  0.548477  0.901907  0.744074  1
  F  F21  1  0.783078  0.434623  0.250352  1
  F  F22  1  0.782166  0.783317  0.250240  1
  F  F23  1  0.902327  0.549403  0.744513  1
