# generated using pymatgen
data_LiFeSiO4
_symmetry_space_group_name_H-M   'P 1'
_cell_length_a   6.43708952
_cell_length_b   10.84452101
_cell_length_c   5.13610642
_cell_angle_alpha   89.97968014
_cell_angle_beta   90.00000000
_cell_angle_gamma   90.00000000
_symmetry_Int_Tables_number   1
_chemical_formula_structural   LiFeSiO4
_chemical_formula_sum   'Li4 Fe4 Si4 O16'
_cell_volume   358.53694212
_cell_formula_units_Z   4
loop_
 _symmetry_equiv_pos_site_id
 _symmetry_equiv_pos_as_xyz
  1  'x, y, z'
loop_
 _atom_site_type_symbol
 _atom_site_label
 _atom_site_symmetry_multiplicity
 _atom_site_fract_x
 _atom_site_fract_y
 _atom_site_fract_z
 _atom_site_occupancy
  Li  Li0  1  0.986163  0.167455  0.262578  1
  Li  Li1  1  0.013547  0.832763  0.761821  1
  Li  Li2  1  0.486453  0.332763  0.761821  1
  Li  Li3  1  0.513837  0.667455  0.262578  1
  Fe  Fe4  1  0.276350  0.914616  0.261924  1
  Fe  Fe5  1  0.223650  0.414616  0.261924  1
  Fe  Fe6  1  0.723756  0.086016  0.761299  1
  Fe  Fe7  1  0.776244  0.586016  0.761299  1
  Si  Si8  1  0.016972  0.672913  0.262873  1
  Si  Si9  1  0.483028  0.172913  0.262873  1
  Si  Si10  1  0.516971  0.827761  0.763848  1
  Si  Si11  1  0.983029  0.327761  0.763848  1
  O  O12  1  0.195015  0.384553  0.626040  1
  O  O13  1  0.225006  0.587265  0.197748  1
  O  O14  1  0.274994  0.087265  0.197748  1
  O  O15  1  0.304985  0.884553  0.626040  1
  O  O16  1  0.452315  0.315131  0.153612  1
  O  O17  1  0.485269  0.827214  0.082222  1
  O  O18  1  0.514633  0.173099  0.581217  1
  O  O19  1  0.548056  0.685878  0.653447  1
  O  O20  1  0.694710  0.115884  0.125238  1
  O  O21  1  0.725111  0.913343  0.698907  1
  O  O22  1  0.774889  0.413343  0.698907  1
  O  O23  1  0.805290  0.615884  0.125238  1
  O  O24  1  0.951944  0.185878  0.653447  1
  O  O25  1  0.985367  0.673099  0.581217  1
  O  O26  1  0.014731  0.327213  0.082222  1
  O  O27  1  0.047685  0.815131  0.153612  1
