# generated using pymatgen
data_Mn3NbCr2(PO4)6
_symmetry_space_group_name_H-M   'P 1'
_cell_length_a   8.56174422
_cell_length_b   8.56174500
_cell_length_c   8.56174434
_cell_angle_alpha   61.57286923
_cell_angle_beta   61.57287157
_cell_angle_gamma   61.57287153
_symmetry_Int_Tables_number   1
_chemical_formula_structural   Mn3NbCr2(PO4)6
_chemical_formula_sum   'Mn3 Nb1 Cr2 P6 O24'
_cell_volume   459.44478927
_cell_formula_units_Z   1
loop_
 _symmetry_equiv_pos_site_id
 _symmetry_equiv_pos_as_xyz
  1  'x, y, z'
loop_
 _atom_site_type_symbol
 _atom_site_label
 _atom_site_symmetry_multiplicity
 _atom_site_fract_x
 _atom_site_fract_y
 _atom_site_fract_z
 _atom_site_occupancy
  Mn  Mn0  1  0.149178  0.149178  0.149178  1
  Mn  Mn1  1  0.352817  0.352817  0.352817  1
  Mn  Mn2  1  0.646545  0.646545  0.646545  1
  Nb  Nb3  1  0.853445  0.853445  0.853445  1
  Cr  Cr4  1  0.002756  0.002756  0.002756  1
  Cr  Cr5  1  0.501500  0.501500  0.501500  1
  P  P6  1  0.748036  0.442722  0.054054  1
  P  P7  1  0.254437  0.547995  0.946540  1
  P  P8  1  0.547995  0.946540  0.254437  1
  P  P9  1  0.946540  0.254437  0.547995  1
  P  P10  1  0.054054  0.748036  0.442722  1
  P  P11  1  0.442722  0.054054  0.748036  1
  O  O12  1  0.094642  0.321225  0.518409  1
  O  O13  1  0.321225  0.518409  0.094642  1
  O  O14  1  0.070006  0.904153  0.246777  1
  O  O15  1  0.518409  0.094642  0.321225  1
  O  O16  1  0.987185  0.828377  0.607216  1
  O  O17  1  0.250347  0.603644  0.446551  1
  O  O18  1  0.246777  0.070006  0.904153  1
  O  O19  1  0.446551  0.250347  0.603644  1
  O  O20  1  0.174921  0.402576  0.988684  1
  O  O21  1  0.603644  0.446551  0.250347  1
  O  O22  1  0.094004  0.754952  0.927299  1
  O  O23  1  0.402576  0.988684  0.174921  1
  O  O24  1  0.607216  0.987185  0.828377  1
  O  O25  1  0.904153  0.246777  0.070006  1
  O  O26  1  0.401462  0.567188  0.744199  1
  O  O27  1  0.828377  0.607216  0.987185  1
  O  O28  1  0.567188  0.744199  0.401462  1
  O  O29  1  0.754952  0.927299  0.094004  1
  O  O30  1  0.744199  0.401462  0.567188  1
  O  O31  1  0.988684  0.174921  0.402576  1
  O  O32  1  0.485694  0.902810  0.677652  1
  O  O33  1  0.927299  0.094004  0.754952  1
  O  O34  1  0.677652  0.485694  0.902810  1
  O  O35  1  0.902810  0.677652  0.485694  1
