# generated using pymatgen
data_LiFeNiO4
_symmetry_space_group_name_H-M   'P 1'
_cell_length_a   5.66303289
_cell_length_b   5.94280376
_cell_length_c   5.94280376
_cell_angle_alpha   57.79695809
_cell_angle_beta   61.54545737
_cell_angle_gamma   61.54545741
_symmetry_Int_Tables_number   1
_chemical_formula_structural   LiFeNiO4
_chemical_formula_sum   'Li2 Fe2 Ni2 O8'
_cell_volume   141.97621326
_cell_formula_units_Z   2
loop_
 _symmetry_equiv_pos_site_id
 _symmetry_equiv_pos_as_xyz
  1  'x, y, z'
loop_
 _atom_site_type_symbol
 _atom_site_label
 _atom_site_symmetry_multiplicity
 _atom_site_fract_x
 _atom_site_fract_y
 _atom_site_fract_z
 _atom_site_occupancy
  Li  Li0  1  0.131764  0.118236  0.118236  1
  Li  Li1  1  0.868236  0.881764  0.881764  1
  Fe  Fe2  1  0.500000  0.000000  0.500000  1
  Fe  Fe3  1  0.500000  0.500000  0.000000  1
  Ni  Ni4  1  0.000000  0.500000  0.500000  1
  Ni  Ni5  1  0.500000  0.500000  0.500000  1
  O  O6  1  0.267552  0.255259  0.255259  1
  O  O7  1  0.263681  0.265483  0.707155  1
  O  O8  1  0.263681  0.707155  0.265483  1
  O  O9  1  0.721930  0.255259  0.255259  1
  O  O10  1  0.278070  0.744741  0.744741  1
  O  O11  1  0.736319  0.734517  0.292845  1
  O  O12  1  0.736319  0.292845  0.734517  1
  O  O13  1  0.732448  0.744741  0.744741  1
