# generated using pymatgen
data_LiNi2(CO4)2
_symmetry_space_group_name_H-M   'P 1'
_cell_length_a   9.53207333
_cell_length_b   8.54457303
_cell_length_c   6.40357392
_cell_angle_alpha   90.00000000
_cell_angle_beta   89.05676441
_cell_angle_gamma   90.00000000
_symmetry_Int_Tables_number   1
_chemical_formula_structural   LiNi2(CO4)2
_chemical_formula_sum   'Li4 Ni8 C8 O32'
_cell_volume   521.48439279
_cell_formula_units_Z   4
loop_
 _symmetry_equiv_pos_site_id
 _symmetry_equiv_pos_as_xyz
  1  'x, y, z'
loop_
 _atom_site_type_symbol
 _atom_site_label
 _atom_site_symmetry_multiplicity
 _atom_site_fract_x
 _atom_site_fract_y
 _atom_site_fract_z
 _atom_site_occupancy
  Li  Li0  1  0.167691  0.074341  0.360143  1
  Li  Li1  1  0.332309  0.574341  0.139857  1
  Li  Li2  1  0.667691  0.425659  0.860143  1
  Li  Li3  1  0.832309  0.925659  0.639857  1
  Ni  Ni4  1  0.091583  0.731581  0.420514  1
  Ni  Ni5  1  0.092633  0.729516  0.922372  1
  Ni  Ni6  1  0.408417  0.231581  0.079486  1
  Ni  Ni7  1  0.407367  0.229516  0.577628  1
  Ni  Ni8  1  0.592633  0.770484  0.422372  1
  Ni  Ni9  1  0.591583  0.768419  0.920514  1
  Ni  Ni10  1  0.907367  0.270484  0.077628  1
  Ni  Ni11  1  0.908417  0.268419  0.579486  1
  C  C12  1  0.163143  0.384135  0.354374  1
  C  C13  1  0.165992  0.375106  0.861837  1
  C  C14  1  0.336857  0.884135  0.145626  1
  C  C15  1  0.334008  0.875106  0.638163  1
  C  C16  1  0.665992  0.124894  0.361837  1
  C  C17  1  0.663143  0.115865  0.854374  1
  C  C18  1  0.834008  0.624894  0.138163  1
  C  C19  1  0.836857  0.615865  0.645626  1
  O  O20  1  0.008521  0.050715  0.075776  1
  O  O21  1  0.010732  0.055767  0.577318  1
  O  O22  1  0.036480  0.329970  0.330055  1
  O  O23  1  0.039928  0.323584  0.823207  1
  O  O24  1  0.191732  0.525407  0.391950  1
  O  O25  1  0.184978  0.511398  0.937792  1
  O  O26  1  0.267045  0.281786  0.340206  1
  O  O27  1  0.273709  0.281438  0.835011  1
  O  O28  1  0.232955  0.781786  0.159794  1
  O  O29  1  0.226291  0.781438  0.664989  1
  O  O30  1  0.308268  0.025407  0.108050  1
  O  O31  1  0.315022  0.011398  0.562208  1
  O  O32  1  0.463520  0.829970  0.169945  1
  O  O33  1  0.460072  0.823584  0.676793  1
  O  O34  1  0.489268  0.555767  0.922682  1
  O  O35  1  0.491479  0.550715  0.424224  1
  O  O36  1  0.510732  0.444233  0.077318  1
  O  O37  1  0.508521  0.449285  0.575776  1
  O  O38  1  0.539928  0.176416  0.323207  1
  O  O39  1  0.536480  0.170030  0.830055  1
  O  O40  1  0.684978  0.988602  0.437792  1
  O  O41  1  0.691732  0.974593  0.891950  1
  O  O42  1  0.773709  0.218562  0.335011  1
  O  O43  1  0.767045  0.218214  0.840206  1
  O  O44  1  0.726291  0.718562  0.164989  1
  O  O45  1  0.732955  0.718214  0.659794  1
  O  O46  1  0.815022  0.488602  0.062208  1
  O  O47  1  0.808268  0.474593  0.608050  1
  O  O48  1  0.960072  0.676416  0.176793  1
  O  O49  1  0.963520  0.670030  0.669945  1
  O  O50  1  0.989268  0.944233  0.422682  1
  O  O51  1  0.991479  0.949285  0.924224  1
