# generated using pymatgen
data_FeCoO4
_symmetry_space_group_name_H-M   'P 1'
_cell_length_a   5.05554504
_cell_length_b   10.12923207
_cell_length_c   9.70115778
_cell_angle_alpha   16.71669694
_cell_angle_beta   29.36826490
_cell_angle_gamma   33.42001549
_symmetry_Int_Tables_number   1
_chemical_formula_structural   FeCoO4
_chemical_formula_sum   'Fe1 Co1 O4'
_cell_volume   70.07868952
_cell_formula_units_Z   1
loop_
 _symmetry_equiv_pos_site_id
 _symmetry_equiv_pos_as_xyz
  1  'x, y, z'
loop_
 _atom_site_type_symbol
 _atom_site_label
 _atom_site_symmetry_multiplicity
 _atom_site_fract_x
 _atom_site_fract_y
 _atom_site_fract_z
 _atom_site_occupancy
  Fe  Fe0  1  0.500000  0.000000  0.500000  1
  Co  Co1  1  0.500000  0.500000  0.500000  1
  O  O2  1  0.205434  0.500000  0.246271  1
  O  O3  1  0.794566  0.500000  0.753729  1
  O  O4  1  0.258492  0.000000  0.219517  1
  O  O5  1  0.741508  1.000000  0.780483  1
