# generated using pymatgen
data_Li6CoNi9O20
_symmetry_space_group_name_H-M   'P 1'
_cell_length_a   2.83093609
_cell_length_b   11.71624078
_cell_length_c   11.56409000
_cell_angle_alpha   114.16392669
_cell_angle_beta   82.99507366
_cell_angle_gamma   90.03248935
_symmetry_Int_Tables_number   1
_chemical_formula_structural   Li6CoNi9O20
_chemical_formula_sum   'Li6 Co1 Ni9 O20'
_cell_volume   346.82051172
_cell_formula_units_Z   1
loop_
 _symmetry_equiv_pos_site_id
 _symmetry_equiv_pos_as_xyz
  1  'x, y, z'
loop_
 _atom_site_type_symbol
 _atom_site_label
 _atom_site_symmetry_multiplicity
 _atom_site_fract_x
 _atom_site_fract_y
 _atom_site_fract_z
 _atom_site_occupancy
  Li  Li0  1  0.192827  0.368098  0.614633  1
  Li  Li1  1  0.801510  0.648391  0.396266  1
  Li  Li2  1  0.607173  0.031902  0.785367  1
  Li  Li3  1  0.808136  0.135907  0.382611  1
  Li  Li4  1  0.991864  0.264093  0.017389  1
  Li  Li5  1  0.998490  0.751609  0.003734  1
  Co  Co6  1  0.400000  0.700000  0.200000  1
  Ni  Ni7  1  0.197604  0.600048  0.604339  1
  Ni  Ni8  1  0.199269  0.102955  0.600651  1
  Ni  Ni9  1  0.400000  0.200000  0.200000  1
  Ni  Ni10  1  0.999113  0.499635  0.001533  1
  Ni  Ni11  1  0.600731  0.297045  0.799349  1
  Ni  Ni12  1  0.801789  0.401778  0.396116  1
  Ni  Ni13  1  0.998212  0.998222  0.003884  1
  Ni  Ni14  1  0.602395  0.799952  0.795661  1
  Ni  Ni15  1  0.800887  0.900365  0.398467  1
  O  O16  1  0.490820  0.125153  0.017079  1
  O  O17  1  0.513946  0.868425  0.973652  1
  O  O18  1  0.100633  0.401177  0.799923  1
  O  O19  1  0.099022  0.911049  0.802617  1
  O  O20  1  0.105796  0.690544  0.788372  1
  O  O21  1  0.311234  0.777054  0.379995  1
  O  O22  1  0.488766  0.622946  0.020005  1
  O  O23  1  0.106126  0.182132  0.787956  1
  O  O24  1  0.287031  0.029493  0.423862  1
  O  O25  1  0.286054  0.531575  0.426348  1
  O  O26  1  0.309180  0.274847  0.382921  1
  O  O27  1  0.512969  0.370507  0.976138  1
  O  O28  1  0.693874  0.217868  0.612044  1
  O  O29  1  0.901080  0.093028  0.197458  1
  O  O30  1  0.694204  0.709456  0.611628  1
  O  O31  1  0.700978  0.488951  0.597383  1
  O  O32  1  0.699367  0.998823  0.600077  1
  O  O33  1  0.899382  0.593257  0.198489  1
  O  O34  1  0.900618  0.806743  0.201511  1
  O  O35  1  0.898920  0.306972  0.202542  1
