# generated using pymatgen
data_MnH8(SO6)2
_symmetry_space_group_name_H-M   'P 1'
_cell_length_a   9.35129855
_cell_length_b   11.46605524
_cell_length_c   11.02732446
_cell_angle_alpha   68.62172408
_cell_angle_beta   90.00000000
_cell_angle_gamma   114.06557312
_symmetry_Int_Tables_number   1
_chemical_formula_structural   MnH8(SO6)2
_chemical_formula_sum   'Mn4 H32 S8 O48'
_cell_volume   989.83867703
_cell_formula_units_Z   4
loop_
 _symmetry_equiv_pos_site_id
 _symmetry_equiv_pos_as_xyz
  1  'x, y, z'
loop_
 _atom_site_type_symbol
 _atom_site_label
 _atom_site_symmetry_multiplicity
 _atom_site_fract_x
 _atom_site_fract_y
 _atom_site_fract_z
 _atom_site_occupancy
  Mn  Mn0  1  0.000000  0.500000  0.000000  1
  Mn  Mn1  1  0.250612  1.000000  0.250000  1
  Mn  Mn2  1  0.500000  0.500000  0.500000  1
  Mn  Mn3  1  0.749388  0.000000  0.750000  1
  H  H4  1  0.018057  0.270140  0.020774  1
  H  H5  1  0.753531  0.268699  0.034242  1
  H  H6  1  0.346999  0.252685  0.039580  1
  H  H7  1  0.003493  0.038470  0.166538  1
  H  H8  1  0.537074  0.040374  0.166817  1
  H  H9  1  0.806187  0.597015  0.049109  1
  H  H10  1  0.278047  0.596669  0.050813  1
  H  H11  1  0.395178  0.263719  0.180691  1
  H  H12  1  0.131460  0.736281  0.319309  1
  H  H13  1  0.681378  0.403331  0.449187  1
  H  H14  1  0.252084  0.270140  0.520774  1
  H  H15  1  0.209173  0.402985  0.450891  1
  H  H16  1  0.515168  0.268699  0.534242  1
  H  H17  1  0.905686  0.252685  0.539580  1
  H  H18  1  0.034977  0.038470  0.666538  1
  H  H19  1  0.503299  0.040374  0.666817  1
  H  H20  1  0.496701  0.959626  0.333183  1
  H  H21  1  0.965023  0.961530  0.333462  1
  H  H22  1  0.094314  0.747315  0.460420  1
  H  H23  1  0.484832  0.731301  0.465758  1
  H  H24  1  0.790827  0.597015  0.549109  1
  H  H25  1  0.747916  0.729860  0.479226  1
  H  H26  1  0.318622  0.596669  0.550813  1
  H  H27  1  0.868540  0.263719  0.680691  1
  H  H28  1  0.604822  0.736281  0.819309  1
  H  H29  1  0.721953  0.403331  0.949187  1
  H  H30  1  0.193813  0.402985  0.950891  1
  H  H31  1  0.462926  0.959626  0.833183  1
  H  H32  1  0.996507  0.961530  0.833462  1
  H  H33  1  0.653001  0.747315  0.960420  1
  H  H34  1  0.246469  0.731301  0.965758  1
  H  H35  1  0.981943  0.729860  0.979226  1
  S  S36  1  0.769902  0.036481  0.032854  1
  S  S37  1  0.499673  0.518355  0.200425  1
  S  S38  1  0.981317  0.481645  0.299575  1
  S  S39  1  0.266580  0.036481  0.532854  1
  S  S40  1  0.733420  0.963519  0.467146  1
  S  S41  1  0.018683  0.518355  0.700425  1
  S  S42  1  0.500327  0.481645  0.799575  1
  S  S43  1  0.230098  0.963519  0.967146  1
  O  O44  1  0.938131  0.112033  0.048999  1
  O  O45  1  0.678033  0.111148  0.051121  1
  O  O46  1  0.088300  0.371130  0.005698  1
  O  O47  1  0.778416  0.367292  0.023213  1
  O  O48  1  0.360144  0.199386  0.131160  1
  O  O49  1  0.044967  0.000000  0.250000  1
  O  O50  1  0.456522  1.000000  0.250000  1
  O  O51  1  0.639077  0.605259  0.089765  1
  O  O52  1  0.986040  0.427868  0.190977  1
  O  O53  1  0.362808  0.545471  0.163138  1
  O  O54  1  0.463326  0.370193  0.250769  1
  O  O55  1  0.282561  0.066334  0.385456  1
  O  O56  1  0.808392  0.109899  0.384188  1
  O  O57  1  0.698493  0.890101  0.115812  1
  O  O58  1  0.216226  0.933666  0.114544  1
  O  O59  1  0.093133  0.629807  0.249231  1
  O  O60  1  0.817336  0.454529  0.336862  1
  O  O61  1  0.558171  0.572132  0.309023  1
  O  O62  1  0.033819  0.394741  0.410235  1
  O  O63  1  0.173901  0.112033  0.548999  1
  O  O64  1  0.433115  0.111148  0.551121  1
  O  O65  1  0.282830  0.371130  0.505698  1
  O  O66  1  0.588876  0.367292  0.523213  1
  O  O67  1  0.160758  0.800614  0.368840  1
  O  O68  1  0.839242  0.199386  0.631160  1
  O  O69  1  0.411124  0.632708  0.476787  1
  O  O70  1  0.717170  0.628870  0.494302  1
  O  O71  1  0.955033  0.000000  0.750000  1
  O  O72  1  0.543478  0.000000  0.750000  1
  O  O73  1  0.566885  0.888852  0.448879  1
  O  O74  1  0.826099  0.887967  0.451001  1
  O  O75  1  0.966181  0.605259  0.589765  1
  O  O76  1  0.441829  0.427868  0.690977  1
  O  O77  1  0.182664  0.545471  0.663138  1
  O  O78  1  0.906867  0.370193  0.750769  1
  O  O79  1  0.783774  0.066334  0.885456  1
  O  O80  1  0.301507  0.109899  0.884188  1
  O  O81  1  0.191608  0.890101  0.615812  1
  O  O82  1  0.717439  0.933666  0.614544  1
  O  O83  1  0.536674  0.629807  0.749231  1
  O  O84  1  0.637192  0.454529  0.836862  1
  O  O85  1  0.013960  0.572132  0.809023  1
  O  O86  1  0.360923  0.394741  0.910235  1
  O  O87  1  0.639856  0.800614  0.868840  1
  O  O88  1  0.221584  0.632708  0.976787  1
  O  O89  1  0.911700  0.628870  0.994302  1
  O  O90  1  0.321967  0.888852  0.948879  1
  O  O91  1  0.061869  0.887967  0.951001  1
