# generated using pymatgen
data_Li7Fe3Co(PO4)6
_symmetry_space_group_name_H-M   'P 1'
_cell_length_a   8.84354861
_cell_length_b   8.84354869
_cell_length_c   8.79351202
_cell_angle_alpha   89.99999798
_cell_angle_beta   59.81159476
_cell_angle_gamma   120.00000152
_symmetry_Int_Tables_number   1
_chemical_formula_structural   Li7Fe3Co(PO4)6
_chemical_formula_sum   'Li7 Fe3 Co1 P6 O24'
_cell_volume   484.90631208
_cell_formula_units_Z   1
loop_
 _symmetry_equiv_pos_site_id
 _symmetry_equiv_pos_as_xyz
  1  'x, y, z'
loop_
 _atom_site_type_symbol
 _atom_site_label
 _atom_site_symmetry_multiplicity
 _atom_site_fract_x
 _atom_site_fract_y
 _atom_site_fract_z
 _atom_site_occupancy
  Li  Li0  1  0.046814  0.276649  0.842716  1
  Li  Li1  1  0.880634  0.770165  0.842716  1
  Li  Li2  1  0.504256  0.845641  0.296775  1
  Li  Li3  1  0.387119  0.110469  0.842716  1
  Li  Li4  1  0.044611  0.198969  0.296775  1
  Li  Li5  1  0.959288  0.479643  0.561069  1
  Li  Li6  1  0.857583  0.658613  0.296775  1
  Fe  Fe7  1  0.701085  0.350542  0.948372  1
  Fe  Fe8  1  0.294710  0.147355  0.557935  1
  Fe  Fe9  1  0.289499  0.644749  0.065752  1
  Co  Co10  1  0.695752  0.847877  0.456371  1
  P  P11  1  0.205537  0.746887  0.748850  1
  P  P12  1  0.205181  0.953858  0.253547  1
  P  P13  1  0.504264  0.458651  0.748850  1
  P  P14  1  0.495129  0.541272  0.253547  1
  P  P15  1  0.792500  0.045613  0.748850  1
  P  P16  1  0.792595  0.251325  0.253547  1
  O  O17  1  0.189084  0.686577  0.923246  1
  O  O18  1  0.213290  0.928719  0.750109  1
  O  O19  1  0.000728  0.602843  0.757352  1
  O  O20  1  0.574247  0.887669  0.923246  1
  O  O21  1  0.229024  0.982450  0.415283  1
  O  O22  1  0.029629  0.963943  0.268425  1
  O  O23  1  0.390176  0.502507  0.923246  1
  O  O24  1  0.396548  0.772741  0.568922  1
  O  O25  1  0.145979  0.755244  0.251481  1
  O  O26  1  0.321171  0.284571  0.750109  1
  O  O27  1  0.658337  0.623807  0.568922  1
  O  O28  1  0.639805  0.397885  0.757352  1
  O  O29  1  0.357784  0.602540  0.251481  1
  O  O30  1  0.338141  0.355692  0.415283  1
  O  O31  1  0.665889  0.701946  0.268425  1
  O  O32  1  0.844763  0.241920  0.757352  1
  O  O33  1  0.602267  0.246575  0.415283  1
  O  O34  1  0.624989  0.517889  0.065108  1
  O  O35  1  0.965320  0.036601  0.750109  1
  O  O36  1  0.807271  0.034530  0.568922  1
  O  O37  1  0.417003  0.107099  0.065108  1
  O  O38  1  0.993274  0.390736  0.251481  1
  O  O39  1  0.767632  0.065686  0.268425  1
  O  O40  1  0.827794  0.309904  0.065108  1
