# generated using pymatgen
data_LiV2(SiO4)2
_symmetry_space_group_name_H-M   'P 1'
_cell_length_a   5.85712029
_cell_length_b   10.12537847
_cell_length_c   4.86773897
_cell_angle_alpha   90.00000000
_cell_angle_beta   89.87188338
_cell_angle_gamma   90.00000000
_symmetry_Int_Tables_number   1
_chemical_formula_structural   LiV2(SiO4)2
_chemical_formula_sum   'Li2 V4 Si4 O16'
_cell_volume   288.68326266
_cell_formula_units_Z   2
loop_
 _symmetry_equiv_pos_site_id
 _symmetry_equiv_pos_as_xyz
  1  'x, y, z'
loop_
 _atom_site_type_symbol
 _atom_site_label
 _atom_site_symmetry_multiplicity
 _atom_site_fract_x
 _atom_site_fract_y
 _atom_site_fract_z
 _atom_site_occupancy
  Li  Li0  1  0.289090  0.284636  0.259289  1
  Li  Li1  1  0.710910  0.784636  0.740711  1
  V  V2  1  0.009456  0.531349  0.751260  1
  V  V3  1  0.490132  0.065084  0.750233  1
  V  V4  1  0.509868  0.565084  0.249767  1
  V  V5  1  0.990544  0.031349  0.248740  1
  Si  Si6  1  0.008224  0.703744  0.189211  1
  Si  Si7  1  0.496430  0.893765  0.305823  1
  Si  Si8  1  0.503570  0.393765  0.694177  1
  Si  Si9  1  0.991776  0.203744  0.810789  1
  O  O10  1  0.993730  0.682259  0.520304  1
  O  O11  1  0.991434  0.361706  0.889326  1
  O  O12  1  0.205733  0.134272  0.985551  1
  O  O13  1  0.213385  0.621092  0.029461  1
  O  O14  1  0.287807  0.980693  0.458068  1
  O  O15  1  0.284394  0.470015  0.534636  1
  O  O16  1  0.501547  0.242780  0.584698  1
  O  O17  1  0.512077  0.905434  0.975213  1
  O  O18  1  0.487923  0.405434  0.024787  1
  O  O19  1  0.498453  0.742780  0.415302  1
  O  O20  1  0.715606  0.970015  0.465364  1
  O  O21  1  0.712193  0.480693  0.541932  1
  O  O22  1  0.786615  0.121092  0.970539  1
  O  O23  1  0.794267  0.634272  0.014449  1
  O  O24  1  0.008566  0.861706  0.110674  1
  O  O25  1  0.006270  0.182259  0.479696  1
