# generated using pymatgen
data_Li3Ti(FeO3)2
_symmetry_space_group_name_H-M   'P 1'
_cell_length_a   15.61632276
_cell_length_b   9.98088729
_cell_length_c   9.98088719
_cell_angle_alpha   17.20693537
_cell_angle_beta   16.70987907
_cell_angle_gamma   16.70988080
_symmetry_Int_Tables_number   1
_chemical_formula_structural   Li3Ti(FeO3)2
_chemical_formula_sum   'Li3 Ti1 Fe2 O6'
_cell_volume   114.28667602
_cell_formula_units_Z   1
loop_
 _symmetry_equiv_pos_site_id
 _symmetry_equiv_pos_as_xyz
  1  'x, y, z'
loop_
 _atom_site_type_symbol
 _atom_site_label
 _atom_site_symmetry_multiplicity
 _atom_site_fract_x
 _atom_site_fract_y
 _atom_site_fract_z
 _atom_site_occupancy
  Li  Li0  1  0.166667  0.500000  0.500000  1
  Li  Li1  1  0.499688  0.499062  0.499062  1
  Li  Li2  1  0.833645  0.500938  0.500938  1
  Ti  Ti3  1  0.666667  0.000000  0.000000  1
  Fe  Fe4  1  0.981048  0.014299  0.014299  1
  Fe  Fe5  1  0.352286  0.985701  0.985701  1
  O  O6  1  0.270296  0.241345  0.241345  1
  O  O7  1  0.573570  0.259508  0.259508  1
  O  O8  1  0.063037  0.758655  0.758655  1
  O  O9  1  0.889527  0.277179  0.277179  1
  O  O10  1  0.443806  0.722821  0.722821  1
  O  O11  1  0.759763  0.740492  0.740492  1
