# generated using pymatgen
data_Li3Co3SbO8
_symmetry_space_group_name_H-M   'P 1'
_cell_length_a   10.51250026
_cell_length_b   10.50046041
_cell_length_c   14.82844067
_cell_angle_alpha   19.37492676
_cell_angle_beta   19.51305655
_cell_angle_gamma   33.60551246
_symmetry_Int_Tables_number   1
_chemical_formula_structural   Li3Co3SbO8
_chemical_formula_sum   'Li3 Co3 Sb1 O8'
_cell_volume   156.20929716
_cell_formula_units_Z   1
loop_
 _symmetry_equiv_pos_site_id
 _symmetry_equiv_pos_as_xyz
  1  'x, y, z'
loop_
 _atom_site_type_symbol
 _atom_site_label
 _atom_site_symmetry_multiplicity
 _atom_site_fract_x
 _atom_site_fract_y
 _atom_site_fract_z
 _atom_site_occupancy
  Li  Li0  1  0.000000  0.500000  0.500000  1
  Li  Li1  1  0.500000  0.000000  0.500000  1
  Li  Li2  1  0.500000  0.500000  0.500000  1
  Co  Co3  1  0.000000  0.500000  0.000000  1
  Co  Co4  1  0.500000  0.000000  0.000000  1
  Co  Co5  1  0.499999  0.500000  0.000001  1
  Sb  Sb6  1  0.000000  0.000000  0.000000  1
  O  O7  1  0.012989  0.969273  0.281712  1
  O  O8  1  0.935414  0.500084  0.298897  1
  O  O9  1  0.527794  0.044814  0.215068  1
  O  O10  1  -0.012988  0.030728  0.718287  1
  O  O11  1  0.469661  0.448931  0.307108  1
  O  O12  1  0.064585  0.499916  0.701104  1
  O  O13  1  0.472206  0.955187  0.784932  1
  O  O14  1  0.530339  0.551069  0.692892  1
