# generated using pymatgen
data_Li6Co3Ni5O16
_symmetry_space_group_name_H-M   'P 1'
_cell_length_a   5.72132905
_cell_length_b   5.73343370
_cell_length_c   9.25513608
_cell_angle_alpha   88.11243964
_cell_angle_beta   91.54672358
_cell_angle_gamma   121.64477017
_symmetry_Int_Tables_number   1
_chemical_formula_structural   Li6Co3Ni5O16
_chemical_formula_sum   'Li6 Co3 Ni5 O16'
_cell_volume   258.29854092
_cell_formula_units_Z   1
loop_
 _symmetry_equiv_pos_site_id
 _symmetry_equiv_pos_as_xyz
  1  'x, y, z'
loop_
 _atom_site_type_symbol
 _atom_site_label
 _atom_site_symmetry_multiplicity
 _atom_site_fract_x
 _atom_site_fract_y
 _atom_site_fract_z
 _atom_site_occupancy
  Li  Li0  1  0.830542  0.169484  0.550005  1
  Li  Li1  1  0.827195  0.665363  0.554114  1
  Li  Li2  1  0.334917  0.172168  0.554157  1
  Li  Li3  1  0.660059  0.826994  0.048934  1
  Li  Li4  1  0.172724  0.341139  0.049943  1
  Li  Li5  1  0.168545  0.830237  0.052982  1
  Co  Co6  1  0.834628  0.167505  0.288992  1
  Co  Co7  1  0.663596  0.830302  0.784392  1
  Co  Co8  1  0.168462  0.331662  0.787372  1
  Ni  Ni9  1  0.669836  0.332395  0.011284  1
  Ni  Ni10  1  0.830996  0.663388  0.285031  1
  Ni  Ni11  1  0.335995  0.168893  0.285514  1
  Ni  Ni12  1  0.327172  0.673760  0.514142  1
  Ni  Ni13  1  0.168821  0.829841  0.785737  1
  O  O14  1  0.851877  0.159611  0.892340  1
  O  O15  1  0.972013  0.470622  0.157151  1
  O  O16  1  0.529642  0.028504  0.155313  1
  O  O17  1  0.672577  0.327923  0.397313  1
  O  O18  1  0.842366  0.684409  0.902941  1
  O  O19  1  0.520176  0.480033  0.160923  1
  O  O20  1  0.671628  0.850824  0.403041  1
  O  O21  1  0.316334  0.159901  0.900546  1
  O  O22  1  0.479171  0.512925  0.669475  1
  O  O23  1  0.145547  0.326918  0.402324  1
  O  O24  1  0.488850  0.968545  0.665238  1
  O  O25  1  0.343272  0.654306  0.900397  1
  O  O26  1  0.033423  0.511934  0.664591  1
  O  O27  1  0.150957  0.848027  0.404156  1
  O  O28  1  0.992513  0.007162  0.180550  1
  O  O29  1  0.992686  0.009164  0.674933  1
