# generated using pymatgen
data_V6O7F5
_symmetry_space_group_name_H-M   'P 1'
_cell_length_a   4.69920425
_cell_length_b   7.75746754
_cell_length_c   5.65617081
_cell_angle_alpha   93.91263735
_cell_angle_beta   90.94458208
_cell_angle_gamma   89.31580215
_symmetry_Int_Tables_number   1
_chemical_formula_structural   V6O7F5
_chemical_formula_sum   'V6 O7 F5'
_cell_volume   205.66900188
_cell_formula_units_Z   1
loop_
 _symmetry_equiv_pos_site_id
 _symmetry_equiv_pos_as_xyz
  1  'x, y, z'
loop_
 _atom_site_type_symbol
 _atom_site_label
 _atom_site_symmetry_multiplicity
 _atom_site_fract_x
 _atom_site_fract_y
 _atom_site_fract_z
 _atom_site_occupancy
  V  V0  1  0.480605  0.669037  0.151007  1
  V  V1  1  0.491131  0.997165  0.506199  1
  V  V2  1  0.530788  0.337839  0.830408  1
  V  V3  1  0.028902  0.663459  0.673886  1
  V  V4  1  0.937775  0.329112  0.336279  1
  V  V5  1  0.005042  0.002609  0.995788  1
  O  O6  1  0.810615  0.434985  0.624616  1
  O  O7  1  0.805876  0.106418  0.302926  1
  O  O8  1  0.690107  0.104722  0.798409  1
  O  O9  1  0.709201  0.441484  0.141929  1
  O  O10  1  0.314287  0.561440  0.868055  1
  O  O11  1  0.305829  0.895895  0.207113  1
  O  O12  1  0.191515  0.895760  0.704408  1
  F  F13  1  0.802946  0.765797  0.962133  1
  F  F14  1  0.702473  0.756430  0.462043  1
  F  F15  1  0.291229  0.241077  0.528007  1
  F  F16  1  0.201370  0.240654  0.041317  1
  F  F17  1  0.200307  0.556115  0.365478  1
