# generated using pymatgen
data_Ba14LiY7(Cu10O21)2
_symmetry_space_group_name_H-M   'P 1'
_cell_length_a   12.24872826
_cell_length_b   8.65340334
_cell_length_c   12.73221426
_cell_angle_alpha   74.25078323
_cell_angle_beta   84.50167985
_cell_angle_gamma   98.22050648
_symmetry_Int_Tables_number   1
_chemical_formula_structural   Ba14LiY7(Cu10O21)2
_chemical_formula_sum   'Ba14 Li1 Y7 Cu20 O42'
_cell_volume   1272.61633060
_cell_formula_units_Z   1
loop_
 _symmetry_equiv_pos_site_id
 _symmetry_equiv_pos_as_xyz
  1  'x, y, z'
loop_
 _atom_site_type_symbol
 _atom_site_label
 _atom_site_symmetry_multiplicity
 _atom_site_fract_x
 _atom_site_fract_y
 _atom_site_fract_z
 _atom_site_occupancy
  Ba  Ba0  1  0.186087  0.058163  0.197459  1
  Ba  Ba1  1  0.043076  0.627973  0.197570  1
  Ba  Ba2  1  0.328168  0.486537  0.195581  1
  Ba  Ba3  1  0.528453  0.084013  0.804470  1
  Ba  Ba4  1  0.616053  0.345712  0.195500  1
  Ba  Ba5  1  0.241518  0.226699  0.804634  1
  Ba  Ba6  1  0.900334  0.202413  0.197503  1
  Ba  Ba7  1  0.757272  0.772880  0.197387  1
  Ba  Ba8  1  0.385028  0.654738  0.804910  1
  Ba  Ba9  1  0.099549  0.799075  0.803493  1
  Ba  Ba10  1  0.956664  0.368754  0.803497  1
  Ba  Ba11  1  0.472508  0.916621  0.194833  1
  Ba  Ba12  1  0.670761  0.512400  0.803365  1
  Ba  Ba13  1  0.814055  0.942392  0.803558  1
  Li  Li14  1  0.951415  0.854393  0.339876  1
  Y  Y15  1  0.571489  0.215565  0.500514  1
  Y  Y16  1  0.285533  0.355412  0.500514  1
  Y  Y17  1  0.998824  0.506196  0.497641  1
  Y  Y18  1  0.858941  0.067270  0.497623  1
  Y  Y19  1  0.428436  0.785333  0.500868  1
  Y  Y20  1  0.139275  0.926695  0.497547  1
  Y  Y21  1  0.718622  0.646802  0.497487  1
  Cu  Cu22  1  0.999411  0.998161  0.004302  1
  Cu  Cu23  1  0.714017  0.142763  0.000261  1
  Cu  Cu24  1  0.142976  0.429027  -0.000634  1
  Cu  Cu25  1  0.428326  0.285122  0.000272  1
  Cu  Cu26  1  0.337758  0.014110  0.632911  1
  Cu  Cu27  1  0.376843  0.127697  0.366895  1
  Cu  Cu28  1  0.052412  0.159109  0.631832  1
  Cu  Cu29  1  0.089956  0.268885  0.371137  1
  Cu  Cu30  1  0.804047  0.413001  0.371323  1
  Cu  Cu31  1  0.232692  0.698541  0.370449  1
  Cu  Cu32  1  0.766994  0.299282  0.632237  1
  Cu  Cu33  1  0.481442  0.443351  0.632761  1
  Cu  Cu34  1  0.286035  0.857340  -0.000544  1
  Cu  Cu35  1  0.857364  0.571640  -0.001089  1
  Cu  Cu36  1  0.571438  0.714650  0.000458  1
  Cu  Cu37  1  0.518385  0.557792  0.366860  1
  Cu  Cu38  1  0.195199  0.585628  0.633771  1
  Cu  Cu39  1  0.908743  0.726329  0.638335  1
  Cu  Cu40  1  0.623753  0.871570  0.633717  1
  Cu  Cu41  1  0.661444  0.984083  0.370542  1
  O  O42  1  0.018243  0.053586  0.382204  1
  O  O43  1  0.233883  0.193215  0.379517  1
  O  O44  1  0.121433  0.364588  0.148478  1
  O  O45  1  0.020748  0.062026  0.855251  1
  O  O46  1  0.693290  0.079208  0.148261  1
  O  O47  1  0.517889  0.050569  0.381796  1
  O  O48  1  0.197119  0.091533  0.619812  1
  O  O49  1  0.407299  0.222152  0.148682  1
  O  O50  1  0.696730  0.090949  0.618888  1
  O  O51  1  0.445637  0.336884  0.380607  1
  O  O52  1  0.732169  0.198414  0.378870  1
  O  O53  1  0.159601  0.476748  0.378857  1
  O  O54  1  0.411454  0.234353  0.620049  1
  O  O55  1  0.126246  0.378086  0.618896  1
  O  O56  1  0.945850  0.337799  0.378415  1
  O  O57  1  0.372968  0.622183  0.381808  1
  O  O58  1  0.164305  0.492491  0.850334  1
  O  O59  1  0.092189  0.762604  0.382104  1
  O  O60  1  0.657650  0.481421  0.379598  1
  O  O61  1  0.550216  0.650131  0.149338  1
  O  O62  1  0.339914  0.519708  0.620545  1
  O  O63  1  0.836326  0.508680  0.147228  1
  O  O64  1  0.625664  0.377326  0.619798  1
  O  O65  1  0.053292  0.662943  0.621196  1
  O  O66  1  0.911656  0.234539  0.619308  1
  O  O67  1  0.735471  0.206723  0.851210  1
  O  O68  1  0.264364  0.793771  0.147954  1
  O  O69  1  0.449660  0.349407  0.851634  1
  O  O70  1  0.840297  0.520553  0.621110  1
  O  O71  1  0.872426  0.618474  0.382276  1
  O  O72  1  0.303892  0.910014  0.377415  1
  O  O73  1  0.269143  0.806297  0.618081  1
  O  O74  1  0.588123  0.765908  0.377432  1
  O  O75  1  0.554369  0.664222  0.618118  1
  O  O76  1  0.878525  0.635371  0.850900  1
  O  O77  1  0.798808  0.909840  0.382180  1
  O  O78  1  0.977836  0.933596  0.154938  1
  O  O79  1  0.592576  0.777954  0.851346  1
  O  O80  1  0.307059  0.921028  0.851090  1
  O  O81  1  0.482952  0.948405  0.620493  1
  O  O82  1  0.769041  0.804721  0.621241  1
  O  O83  1  0.982390  0.947464  0.621113  1
