# generated using pymatgen
data_LiV2CoO6
_symmetry_space_group_name_H-M   'P 1'
_cell_length_a   5.13807097
_cell_length_b   5.02512415
_cell_length_c   5.32404817
_cell_angle_alpha   90.61176173
_cell_angle_beta   117.17855259
_cell_angle_gamma   59.81559408
_symmetry_Int_Tables_number   1
_chemical_formula_structural   LiV2CoO6
_chemical_formula_sum   'Li1 V2 Co1 O6'
_cell_volume   101.32906939
_cell_formula_units_Z   1
loop_
 _symmetry_equiv_pos_site_id
 _symmetry_equiv_pos_as_xyz
  1  'x, y, z'
loop_
 _atom_site_type_symbol
 _atom_site_label
 _atom_site_symmetry_multiplicity
 _atom_site_fract_x
 _atom_site_fract_y
 _atom_site_fract_z
 _atom_site_occupancy
  Li  Li0  1  0.427149  0.296330  0.140403  1
  V  V1  1  0.974624  0.524149  0.486339  1
  V  V2  1  0.961404  0.013016  0.981505  1
  Co  Co3  1  0.412641  0.785807  0.618829  1
  O  O4  1  0.898556  0.354504  0.791459  1
  O  O5  1  0.160357  0.732155  0.801357  1
  O  O6  1  0.540598  0.856323  0.300105  1
  O  O7  1  0.527889  0.106550  0.792674  1
  O  O8  1  0.931511  0.209736  0.292841  1
  O  O9  1  0.163669  0.622231  0.292886  1
