# generated using pymatgen
data_Li3Fe3SbO8
_symmetry_space_group_name_H-M   'P 1'
_cell_length_a   10.58984394
_cell_length_b   10.56666853
_cell_length_c   14.94921444
_cell_angle_alpha   19.46741727
_cell_angle_beta   19.54102472
_cell_angle_gamma   33.65421805
_symmetry_Int_Tables_number   1
_chemical_formula_structural   Li3Fe3SbO8
_chemical_formula_sum   'Li3 Fe3 Sb1 O8'
_cell_volume   161.10935112
_cell_formula_units_Z   1
loop_
 _symmetry_equiv_pos_site_id
 _symmetry_equiv_pos_as_xyz
  1  'x, y, z'
loop_
 _atom_site_type_symbol
 _atom_site_label
 _atom_site_symmetry_multiplicity
 _atom_site_fract_x
 _atom_site_fract_y
 _atom_site_fract_z
 _atom_site_occupancy
  Li  Li0  1  0.000002  0.499999  0.499999  1
  Li  Li1  1  0.500002  -0.000000  0.499999  1
  Li  Li2  1  0.500003  0.500000  0.499998  1
  Fe  Fe3  1  0.000001  0.500001  -0.000002  1
  Fe  Fe4  1  0.499986  -0.000008  0.000019  1
  Fe  Fe5  1  0.500005  0.500002  -0.000005  1
  Sb  Sb6  1  0.000001  0.000002  -0.000003  1
  O  O7  1  0.971547  0.000618  0.279334  1
  O  O8  1  0.015326  0.534788  0.225307  1
  O  O9  1  0.524281  0.000020  0.241887  1
  O  O10  1  0.028450  0.999386  0.720664  1
  O  O11  1  0.480266  0.464874  0.295127  1
  O  O12  1  0.984674  0.465206  0.774696  1
  O  O13  1  0.475724  -0.000016  0.758107  1
  O  O14  1  0.519734  0.535129  0.704870  1
