# generated using pymatgen
data_Ba4Y2Cu5O14
_symmetry_space_group_name_H-M   'P 1'
_cell_length_a   7.74067204
_cell_length_b   5.49322502
_cell_length_c   12.59746156
_cell_angle_alpha   77.41015190
_cell_angle_beta   72.11466544
_cell_angle_gamma   45.13072820
_symmetry_Int_Tables_number   1
_chemical_formula_structural   Ba4Y2Cu5O14
_chemical_formula_sum   'Ba4 Y2 Cu5 O14'
_cell_volume   361.28480944
_cell_formula_units_Z   1
loop_
 _symmetry_equiv_pos_site_id
 _symmetry_equiv_pos_as_xyz
  1  'x, y, z'
loop_
 _atom_site_type_symbol
 _atom_site_label
 _atom_site_symmetry_multiplicity
 _atom_site_fract_x
 _atom_site_fract_y
 _atom_site_fract_z
 _atom_site_occupancy
  Ba  Ba0  1  0.401817  0.500287  0.197028  1
  Ba  Ba1  1  0.094407  0.499537  0.810202  1
  Ba  Ba2  1  0.900855  0.498884  0.196274  1
  Ba  Ba3  1  0.591102  0.504110  0.812300  1
  Y  Y4  1  0.252060  0.503279  0.489664  1
  Y  Y5  1  0.748811  0.504377  0.490537  1
  Cu  Cu6  1  0.998447  0.003790  0.994313  1
  Cu  Cu7  1  0.500441  0.000663  0.998925  1
  Cu  Cu8  1  0.176535  0.000803  0.643823  1
  Cu  Cu9  1  0.677759  -0.000199  0.642415  1
  Cu  Cu10  1  0.307279  0.004584  0.376174  1
  O  O11  1  0.239891  0.502484  0.995334  1
  O  O12  1  0.068025  0.476095  0.381825  1
  O  O13  1  0.422854  0.002479  0.151359  1
  O  O14  1  0.069208  -0.000716  0.381567  1
  O  O15  1  0.738982  0.502349  0.998166  1
  O  O16  1  0.436639  0.495198  0.621496  1
  O  O17  1  0.540779  0.532525  0.380704  1
  O  O18  1  0.076170  0.006185  0.838483  1
  O  O19  1  0.926275  0.998159  0.145686  1
  O  O20  1  0.438159  0.997383  0.622824  1
  O  O21  1  0.543287  0.004342  0.381730  1
  O  O22  1  0.938466  0.502450  0.621171  1
  O  O23  1  0.581092  0.000999  0.844558  1
  O  O24  1  0.933490  0.002302  0.623115  1
