# generated using pymatgen
data_CoPO4
_symmetry_space_group_name_H-M   'P 1'
_cell_length_a   8.64480882
_cell_length_b   6.62282742
_cell_length_c   4.75901368
_cell_angle_alpha   89.98537116
_cell_angle_beta   90.00401498
_cell_angle_gamma   89.99702158
_symmetry_Int_Tables_number   1
_chemical_formula_structural   CoPO4
_chemical_formula_sum   'Co4 P4 O16'
_cell_volume   272.46816644
_cell_formula_units_Z   4
loop_
 _symmetry_equiv_pos_site_id
 _symmetry_equiv_pos_as_xyz
  1  'x, y, z'
loop_
 _atom_site_type_symbol
 _atom_site_label
 _atom_site_symmetry_multiplicity
 _atom_site_fract_x
 _atom_site_fract_y
 _atom_site_fract_z
 _atom_site_occupancy
  Co  Co0  1  0.000000  0.500000  0.000000  1
  Co  Co1  1  0.000000  0.000000  0.000000  1
  Co  Co2  1  0.500000  0.500000  0.500000  1
  Co  Co3  1  0.500000  0.000000  0.500000  1
  P  P4  1  0.176166  0.249942  0.463261  1
  P  P5  1  0.323823  0.749997  0.963281  1
  P  P6  1  0.676177  0.250003  0.036719  1
  P  P7  1  0.823834  0.750058  0.536739  1
  O  O8  1  0.114482  0.249967  0.768464  1
  O  O9  1  0.119536  0.441995  0.311010  1
  O  O10  1  0.119529  0.057949  0.311057  1
  O  O11  1  0.143738  0.750016  0.936688  1
  O  O12  1  0.356280  0.249958  0.436711  1
  O  O13  1  0.380486  0.558017  0.810951  1
  O  O14  1  0.380479  0.942051  0.810998  1
  O  O15  1  0.385516  0.750008  0.268418  1
  O  O16  1  0.614484  0.249992  0.731582  1
  O  O17  1  0.619521  0.057949  0.189002  1
  O  O18  1  0.619514  0.441983  0.189049  1
  O  O19  1  0.643720  0.750042  0.563289  1
  O  O20  1  0.856262  0.249984  0.063312  1
  O  O21  1  0.880471  0.942051  0.688943  1
  O  O22  1  0.880464  0.558005  0.688990  1
  O  O23  1  0.885518  0.750033  0.231536  1
