# generated using pymatgen
data_Li13Mg(Ni6O13)2
_symmetry_space_group_name_H-M   'P 1'
_cell_length_a   7.59645584
_cell_length_b   7.73107755
_cell_length_c   8.01934421
_cell_angle_alpha   75.38065542
_cell_angle_beta   75.82847809
_cell_angle_gamma   89.09087293
_symmetry_Int_Tables_number   1
_chemical_formula_structural   Li13Mg(Ni6O13)2
_chemical_formula_sum   'Li13 Mg1 Ni12 O26'
_cell_volume   441.31982957
_cell_formula_units_Z   1
loop_
 _symmetry_equiv_pos_site_id
 _symmetry_equiv_pos_as_xyz
  1  'x, y, z'
loop_
 _atom_site_type_symbol
 _atom_site_label
 _atom_site_symmetry_multiplicity
 _atom_site_fract_x
 _atom_site_fract_y
 _atom_site_fract_z
 _atom_site_occupancy
  Li  Li0  1  0.919218  0.614982  0.115181  1
  Li  Li1  1  0.846018  0.228638  0.728965  1
  Li  Li2  1  0.615374  0.076155  0.576668  1
  Li  Li3  1  0.770848  0.846926  0.345517  1
  Li  Li4  1  0.693752  0.456619  0.962367  1
  Li  Li5  1  0.458927  0.305696  0.809800  1
  Li  Li6  1  0.541073  0.694304  0.190200  1
  Li  Li7  1  0.306248  0.543381  0.037633  1
  Li  Li8  1  0.384626  0.923845  0.423332  1
  Li  Li9  1  0.229152  0.153074  0.654483  1
  Li  Li10  1  0.000000  0.000000  0.500000  1
  Li  Li11  1  0.153982  0.771362  0.271035  1
  Li  Li12  1  0.080782  0.385018  0.884819  1
  Mg  Mg13  1  0.000000  0.000000  0.000000  1
  Ni  Ni14  1  0.848503  0.228476  0.231350  1
  Ni  Ni15  1  0.922218  0.614959  0.615756  1
  Ni  Ni16  1  0.616757  0.073643  0.077764  1
  Ni  Ni17  1  0.767329  0.844929  0.845672  1
  Ni  Ni18  1  0.692449  0.461903  0.461012  1
  Ni  Ni19  1  0.463328  0.307534  0.307608  1
  Ni  Ni20  1  0.536672  0.692466  0.692392  1
  Ni  Ni21  1  0.307551  0.538097  0.538988  1
  Ni  Ni22  1  0.232671  0.155071  0.154328  1
  Ni  Ni23  1  0.383243  0.926357  0.922236  1
  Ni  Ni24  1  0.151497  0.771524  0.768650  1
  Ni  Ni25  1  0.077782  0.385041  0.384244  1
  O  O26  1  0.986701  0.987831  0.754475  1
  O  O27  1  0.856268  0.242164  0.462200  1
  O  O28  1  0.912076  0.607572  0.382487  1
  O  O29  1  0.932400  0.622021  0.848657  1
  O  O30  1  0.834828  0.221703  0.999011  1
  O  O31  1  0.683481  0.450370  0.228673  1
  O  O32  1  0.766634  0.847315  0.081778  1
  O  O33  1  0.627044  0.083416  0.311399  1
  O  O34  1  0.702466  0.469296  0.694186  1
  O  O35  1  0.755598  0.835179  0.612957  1
  O  O36  1  0.604842  0.067247  0.843328  1
  O  O37  1  0.473658  0.316842  0.540049  1
  O  O38  1  0.545167  0.701937  0.924269  1
  O  O39  1  0.454833  0.298063  0.075731  1
  O  O40  1  0.526342  0.683158  0.459951  1
  O  O41  1  0.233366  0.152685  0.918222  1
  O  O42  1  0.395158  0.932753  0.156672  1
  O  O43  1  0.244402  0.164821  0.387043  1
  O  O44  1  0.316519  0.549630  0.771327  1
  O  O45  1  0.297534  0.530704  0.305814  1
  O  O46  1  0.372956  0.916584  0.688601  1
  O  O47  1  0.087924  0.392428  0.617513  1
  O  O48  1  0.143732  0.757836  0.537800  1
  O  O49  1  0.067600  0.377979  0.151343  1
  O  O50  1  0.165172  0.778297  0.000989  1
  O  O51  1  0.013299  0.012169  0.245525  1
