# generated using pymatgen
data_Li9Fe4(SiO5)4
_symmetry_space_group_name_H-M   'P 1'
_cell_length_a   5.01298194
_cell_length_b   5.61780856
_cell_length_c   16.18383592
_cell_angle_alpha   90.28761006
_cell_angle_beta   89.97821339
_cell_angle_gamma   89.63947435
_symmetry_Int_Tables_number   1
_chemical_formula_structural   Li9Fe4(SiO5)4
_chemical_formula_sum   'Li9 Fe4 Si4 O20'
_cell_volume   455.75394475
_cell_formula_units_Z   1
loop_
 _symmetry_equiv_pos_site_id
 _symmetry_equiv_pos_as_xyz
  1  'x, y, z'
loop_
 _atom_site_type_symbol
 _atom_site_label
 _atom_site_symmetry_multiplicity
 _atom_site_fract_x
 _atom_site_fract_y
 _atom_site_fract_z
 _atom_site_occupancy
  Li  Li0  1  0.993762  0.661784  0.598544  1
  Li  Li1  1  0.998153  0.165797  0.908861  1
  Li  Li2  1  0.001145  0.171347  0.300865  1
  Li  Li3  1  0.997260  0.658731  0.002145  1
  Li  Li4  1  0.498468  0.337111  0.402918  1
  Li  Li5  1  0.502428  0.830719  0.091965  1
  Li  Li6  1  0.510083  0.824997  0.696149  1
  Li  Li7  1  0.497322  0.338655  0.997333  1
  Li  Li8  1  0.501753  0.835657  0.506146  1
  Fe  Fe9  1  0.000585  0.168563  0.702400  1
  Fe  Fe10  1  0.007477  0.666997  0.801584  1
  Fe  Fe11  1  0.502563  0.333337  0.199215  1
  Fe  Fe12  1  0.504038  0.836149  0.300714  1
  Si  Si13  1  0.004908  0.167811  0.096304  1
  Si  Si14  1  0.008502  0.671119  0.400157  1
  Si  Si15  1  0.499682  0.337945  0.598646  1
  Si  Si16  1  0.507606  0.830421  0.903405  1
  O  O17  1  0.058359  0.336448  0.801187  1
  O  O18  1  0.107047  0.842294  0.706237  1
  O  O19  1  0.121228  0.405211  0.380526  1
  O  O20  1  0.110404  0.894781  0.080829  1
  O  O21  1  0.102929  0.323089  0.016913  1
  O  O22  1  0.116184  0.753435  0.491010  1
  O  O23  1  0.132806  0.260655  0.185103  1
  O  O24  1  0.133016  0.852272  0.329810  1
  O  O25  1  0.174138  0.344233  0.619033  1
  O  O26  1  0.175558  0.816221  0.895039  1
  O  O27  1  0.556032  0.663276  0.202357  1
  O  O28  1  0.608055  0.161215  0.294749  1
  O  O29  1  0.609150  0.609513  0.601472  1
  O  O30  1  0.608890  0.103591  0.918386  1
  O  O31  1  0.531055  0.193485  0.510442  1
  O  O32  1  0.605802  0.674113  0.982715  1
  O  O33  1  0.637014  0.162376  0.669816  1
  O  O34  1  0.634615  0.736322  0.814139  1
  O  O35  1  0.673213  0.182137  0.105357  1
  O  O36  1  0.676531  0.686704  0.394219  1
