# generated using pymatgen
data_Li2V2Sn(PO4)3
_symmetry_space_group_name_H-M   'P 1'
_cell_length_a   9.17476051
_cell_length_b   9.28535011
_cell_length_c   9.28534999
_cell_angle_alpha   57.08539166
_cell_angle_beta   57.42922874
_cell_angle_gamma   57.42922636
_symmetry_Int_Tables_number   1
_chemical_formula_structural   Li2V2Sn(PO4)3
_chemical_formula_sum   'Li4 V4 Sn2 P6 O24'
_cell_volume   524.74781080
_cell_formula_units_Z   2
loop_
 _symmetry_equiv_pos_site_id
 _symmetry_equiv_pos_as_xyz
  1  'x, y, z'
loop_
 _atom_site_type_symbol
 _atom_site_label
 _atom_site_symmetry_multiplicity
 _atom_site_fract_x
 _atom_site_fract_y
 _atom_site_fract_z
 _atom_site_occupancy
  Li  Li0  1  0.750000  0.142411  0.357589  1
  Li  Li1  1  0.250000  0.842621  0.657379  1
  Li  Li2  1  0.661584  0.250500  0.840349  1
  Li  Li3  1  0.838416  0.659651  0.249500  1
  V  V4  1  0.148085  0.153613  0.152881  1
  V  V5  1  0.351915  0.347119  0.346387  1
  V  V6  1  0.646100  0.648747  0.654325  1
  V  V7  1  0.853900  0.845675  0.851253  1
  Sn  Sn8  1  0.035956  0.011322  0.999245  1
  Sn  Sn9  1  0.464044  0.500755  0.488678  1
  P  P10  1  0.039308  0.750410  0.460879  1
  P  P11  1  0.460691  0.039121  0.749590  1
  P  P12  1  0.750000  0.457712  0.042288  1
  P  P13  1  0.250000  0.538211  0.961789  1
  P  P14  1  0.544361  0.963520  0.252169  1
  P  P15  1  0.955639  0.247831  0.536480  1
  O  O16  1  0.131311  0.262454  0.501086  1
  O  O17  1  0.276549  0.515118  0.122882  1
  O  O18  1  0.050521  0.929444  0.280735  1
  O  O19  1  0.541855  0.119621  0.272488  1
  O  O20  1  0.029148  0.778467  0.613936  1
  O  O21  1  0.222848  0.584793  0.422453  1
  O  O22  1  0.277152  0.077547  0.915207  1
  O  O23  1  0.449479  0.219265  0.570556  1
  O  O24  1  0.223451  0.377118  0.984882  1
  O  O25  1  0.586857  0.423310  0.233747  1
  O  O26  1  0.082945  0.720405  0.929216  1
  O  O27  1  0.368689  0.998914  0.237546  1
  O  O28  1  0.623163  0.009100  0.781245  1
  O  O29  1  0.913143  0.266253  0.076690  1
  O  O30  1  0.417055  0.570784  0.779595  1
  O  O31  1  0.790793  0.610423  0.017417  1
  O  O32  1  0.572705  0.780674  0.420892  1
  O  O33  1  0.719429  0.924698  0.084630  1
  O  O34  1  0.780571  0.415369  0.575302  1
  O  O35  1  0.958145  0.227512  0.380379  1
  O  O36  1  0.470852  0.886064  0.721533  1
  O  O37  1  0.927295  0.079108  0.719326  1
  O  O38  1  0.709207  0.482583  0.889577  1
  O  O39  1  0.876837  0.718755  0.490900  1
