# generated using pymatgen
data_Li4Mn3Sb(PO4)4
_symmetry_space_group_name_H-M   'P 1'
_cell_length_a   4.79943920
_cell_length_b   10.77635710
_cell_length_c   6.40108305
_cell_angle_alpha   90.00000000
_cell_angle_beta   90.00000000
_cell_angle_gamma   91.44388154
_symmetry_Int_Tables_number   1
_chemical_formula_structural   Li4Mn3Sb(PO4)4
_chemical_formula_sum   'Li4 Mn3 Sb1 P4 O16'
_cell_volume   330.96190969
_cell_formula_units_Z   1
loop_
 _symmetry_equiv_pos_site_id
 _symmetry_equiv_pos_as_xyz
  1  'x, y, z'
loop_
 _atom_site_type_symbol
 _atom_site_label
 _atom_site_symmetry_multiplicity
 _atom_site_fract_x
 _atom_site_fract_y
 _atom_site_fract_z
 _atom_site_occupancy
  Li  Li0  1  0.004244  0.995222  0.002239  1
  Li  Li1  1  0.004244  0.995222  0.497761  1
  Li  Li2  1  0.495087  0.502972  0.495074  1
  Li  Li3  1  0.495087  0.502972  0.004926  1
  Mn  Mn4  1  0.031404  0.725170  0.750000  1
  Mn  Mn5  1  0.473148  0.208463  0.750000  1
  Mn  Mn6  1  0.535661  0.786756  0.250000  1
  Sb  Sb7  1  0.913164  0.289695  0.250000  1
  P  P8  1  0.084771  0.604438  0.250000  1
  P  P9  1  0.414410  0.079554  0.250000  1
  P  P10  1  0.594679  0.906574  0.750000  1
  P  P11  1  0.915328  0.416477  0.750000  1
  O  O12  1  0.194448  0.468170  0.250000  1
  O  O13  1  0.219364  0.669012  0.053948  1
  O  O14  1  0.219364  0.669012  0.446052  1
  O  O15  1  0.234029  0.406255  0.750000  1
  O  O16  1  0.273433  0.901122  0.750000  1
  O  O17  1  0.304803  0.143145  0.046412  1
  O  O18  1  0.304803  0.143145  0.453588  1
  O  O19  1  0.279778  0.946039  0.250000  1
  O  O20  1  0.720633  0.041776  0.750000  1
  O  O21  1  0.722006  0.838633  0.555614  1
  O  O22  1  0.722006  0.838633  0.944386  1
  O  O23  1  0.738431  0.074714  0.250000  1
  O  O24  1  0.763297  0.605263  0.250000  1
  O  O25  1  0.768807  0.345829  0.564068  1
  O  O26  1  0.768807  0.345829  0.935932  1
  O  O27  1  0.804760  0.549911  0.750000  1
