# generated using pymatgen
data_Mn3SnO8
_symmetry_space_group_name_H-M   'P 1'
_cell_length_a   8.44690679
_cell_length_b   8.44688174
_cell_length_c   8.44731113
_cell_angle_alpha   89.99961527
_cell_angle_beta   89.99977318
_cell_angle_gamma   90.00026067
_symmetry_Int_Tables_number   1
_chemical_formula_structural   Mn3SnO8
_chemical_formula_sum   'Mn12 Sn4 O32'
_cell_volume   602.71584107
_cell_formula_units_Z   4
loop_
 _symmetry_equiv_pos_site_id
 _symmetry_equiv_pos_as_xyz
  1  'x, y, z'
loop_
 _atom_site_type_symbol
 _atom_site_label
 _atom_site_symmetry_multiplicity
 _atom_site_fract_x
 _atom_site_fract_y
 _atom_site_fract_z
 _atom_site_occupancy
  Mn  Mn0  1  0.111459  0.138508  0.625037  1
  Mn  Mn1  1  0.125045  0.388542  0.861498  1
  Mn  Mn2  1  0.138515  0.625045  0.111464  1
  Mn  Mn3  1  0.361489  0.374953  0.611449  1
  Mn  Mn4  1  0.374969  0.611468  0.361498  1
  Mn  Mn5  1  0.388537  0.861499  0.125032  1
  Mn  Mn6  1  0.611470  0.361502  0.374965  1
  Mn  Mn7  1  0.625044  0.111463  0.138510  1
  Mn  Mn8  1  0.638507  0.874959  0.888547  1
  Mn  Mn9  1  0.861490  0.125056  0.388548  1
  Mn  Mn10  1  0.874952  0.888544  0.638501  1
  Mn  Mn11  1  0.888536  0.638511  0.874975  1
  Sn  Sn12  1  0.124972  0.875017  0.375007  1
  Sn  Sn13  1  0.375013  0.124988  0.875012  1
  Sn  Sn14  1  0.624975  0.624973  0.625012  1
  Sn  Sn15  1  0.875023  0.375015  0.125002  1
  O  O16  1  0.091724  0.123349  0.395762  1
  O  O17  1  0.104232  0.908272  0.623310  1
  O  O18  1  0.117966  0.617965  0.882037  1
  O  O19  1  0.126727  0.158262  0.854335  1
  O  O20  1  0.123346  0.395760  0.091725  1
  O  O21  1  0.132048  0.367949  0.632073  1
  O  O22  1  0.145649  0.626737  0.341720  1
  O  O23  1  0.158261  0.854363  0.126724  1
  O  O24  1  0.341731  0.145640  0.626723  1
  O  O25  1  0.354355  0.373269  0.841708  1
  O  O26  1  0.367953  0.632057  0.132070  1
  O  O27  1  0.376662  0.604236  0.591717  1
  O  O28  1  0.373273  0.841748  0.354331  1
  O  O29  1  0.382045  0.382036  0.382023  1
  O  O30  1  0.395763  0.091734  0.123313  1
  O  O31  1  0.408272  0.876661  0.895759  1
  O  O32  1  0.591723  0.376659  0.604238  1
  O  O33  1  0.604244  0.591736  0.376697  1
  O  O34  1  0.617965  0.882036  0.117965  1
  O  O35  1  0.626738  0.341745  0.145675  1
  O  O36  1  0.623337  0.104241  0.908281  1
  O  O37  1  0.632053  0.132064  0.367935  1
  O  O38  1  0.645636  0.873271  0.658289  1
  O  O39  1  0.658259  0.645644  0.873286  1
  O  O40  1  0.841743  0.354366  0.373282  1
  O  O41  1  0.854356  0.126733  0.158295  1
  O  O42  1  0.867940  0.867950  0.867935  1
  O  O43  1  0.876662  0.895769  0.408280  1
  O  O44  1  0.873267  0.658264  0.645680  1
  O  O45  1  0.882027  0.117972  0.617971  1
  O  O46  1  0.895766  0.408272  0.876697  1
  O  O47  1  0.908282  0.623340  0.104247  1
