# generated using pymatgen
data_Li6Fe5NiO12
_symmetry_space_group_name_H-M   'P 1'
_cell_length_a   5.10389966
_cell_length_b   5.10496329
_cell_length_c   10.15238339
_cell_angle_alpha   85.83239696
_cell_angle_beta   94.26775456
_cell_angle_gamma   60.04778916
_symmetry_Int_Tables_number   1
_chemical_formula_structural   Li6Fe5NiO12
_chemical_formula_sum   'Li6 Fe5 Ni1 O12'
_cell_volume   226.70404301
_cell_formula_units_Z   1
loop_
 _symmetry_equiv_pos_site_id
 _symmetry_equiv_pos_as_xyz
  1  'x, y, z'
loop_
 _atom_site_type_symbol
 _atom_site_label
 _atom_site_symmetry_multiplicity
 _atom_site_fract_x
 _atom_site_fract_y
 _atom_site_fract_z
 _atom_site_occupancy
  Li  Li0  1  0.106208  0.892558  0.250833  1
  Li  Li1  1  0.563162  0.769400  0.743013  1
  Li  Li2  1  0.227567  0.440454  0.741852  1
  Li  Li3  1  0.769158  0.562838  0.256974  1
  Li  Li4  1  0.440027  0.227030  0.258221  1
  Li  Li5  1  0.893082  0.106932  0.749144  1
  Fe  Fe6  1  0.500324  0.500319  0.499994  1
  Fe  Fe7  1  0.833566  0.833814  0.499998  1
  Fe  Fe8  1  0.166307  0.166129  0.499994  1
  Fe  Fe9  1  0.667546  0.667754  0.999978  1
  Fe  Fe10  1  0.333276  0.332600  0.000024  1
  Ni  Ni11  1  0.999308  0.999510  0.999977  1
  O  O12  1  0.199683  0.800789  0.613016  1
  O  O13  1  0.694460  0.964663  0.113809  1
  O  O14  1  0.038442  0.304517  0.113486  1
  O  O15  1  0.467617  0.865728  0.387016  1
  O  O16  1  0.134059  0.532528  0.387100  1
  O  O17  1  0.378897  0.619560  0.114455  1
  O  O18  1  0.619282  0.378729  0.885486  1
  O  O19  1  0.865961  0.467883  0.612991  1
  O  O20  1  0.532754  0.134327  0.612883  1
  O  O21  1  0.964464  0.694246  0.886285  1
  O  O22  1  0.304322  0.038258  0.886482  1
  O  O23  1  0.800532  0.199428  0.386992  1
