# generated using pymatgen
data_Li2Fe2Si2O7
_symmetry_space_group_name_H-M   'P 1'
_cell_length_a   8.37788425
_cell_length_b   13.37143855
_cell_length_c   5.53153586
_cell_angle_alpha   90.00000000
_cell_angle_beta   89.51424455
_cell_angle_gamma   90.00000000
_symmetry_Int_Tables_number   1
_chemical_formula_structural   Li2Fe2Si2O7
_chemical_formula_sum   'Li8 Fe8 Si8 O28'
_cell_volume   619.64451943
_cell_formula_units_Z   4
loop_
 _symmetry_equiv_pos_site_id
 _symmetry_equiv_pos_as_xyz
  1  'x, y, z'
loop_
 _atom_site_type_symbol
 _atom_site_label
 _atom_site_symmetry_multiplicity
 _atom_site_fract_x
 _atom_site_fract_y
 _atom_site_fract_z
 _atom_site_occupancy
  Li  Li0  1  0.105619  0.373643  0.133791  1
  Li  Li1  1  0.167435  0.753571  0.804460  1
  Li  Li2  1  0.332565  0.253571  0.695540  1
  Li  Li3  1  0.394381  0.873643  0.366209  1
  Li  Li4  1  0.605619  0.126357  0.633791  1
  Li  Li5  1  0.667435  0.746429  0.304460  1
  Li  Li6  1  0.832565  0.246429  0.195540  1
  Li  Li7  1  0.894381  0.626357  0.866209  1
  Fe  Fe8  1  0.117801  0.086653  0.330715  1
  Fe  Fe9  1  0.204977  0.491956  0.623644  1
  Fe  Fe10  1  0.295023  0.991956  0.876356  1
  Fe  Fe11  1  0.382199  0.586653  0.169285  1
  Fe  Fe12  1  0.617801  0.413347  0.830715  1
  Fe  Fe13  1  0.704977  0.008044  0.123644  1
  Fe  Fe14  1  0.795023  0.508044  0.376356  1
  Fe  Fe15  1  0.882199  0.913347  0.669285  1
  Si  Si16  1  0.034326  0.882610  0.199502  1
  Si  Si17  1  0.035603  0.670682  0.332597  1
  Si  Si18  1  0.464397  0.170682  0.167403  1
  Si  Si19  1  0.465674  0.382610  0.300498  1
  Si  Si20  1  0.534326  0.617390  0.699502  1
  Si  Si21  1  0.535603  0.829318  0.832597  1
  Si  Si22  1  0.964397  0.329318  0.667403  1
  Si  Si23  1  0.965674  0.117390  0.800498  1
  O  O24  1  0.029355  0.792383  0.408800  1
  O  O25  1  0.008717  0.162387  0.063638  1
  O  O26  1  0.094972  0.034898  0.695560  1
  O  O27  1  0.067695  0.616267  0.595070  1
  O  O28  1  0.140732  0.360099  0.775341  1
  O  O29  1  0.171032  0.655964  0.122590  1
  O  O30  1  0.209927  0.938158  0.205578  1
  O  O31  1  0.290073  0.438158  0.294422  1
  O  O32  1  0.328968  0.155964  0.377410  1
  O  O33  1  0.359268  0.860099  0.724659  1
  O  O34  1  0.432305  0.116267  0.904930  1
  O  O35  1  0.405028  0.534898  0.804440  1
  O  O36  1  0.491283  0.662387  0.436362  1
  O  O37  1  0.470645  0.292383  0.091200  1
  O  O38  1  0.529355  0.707617  0.908800  1
  O  O39  1  0.508717  0.337613  0.563638  1
  O  O40  1  0.594972  0.465102  0.195560  1
  O  O41  1  0.567695  0.883733  0.095070  1
  O  O42  1  0.640732  0.139901  0.275341  1
  O  O43  1  0.671032  0.844036  0.622590  1
  O  O44  1  0.709927  0.561842  0.705578  1
  O  O45  1  0.790073  0.061842  0.794422  1
  O  O46  1  0.828968  0.344036  0.877410  1
  O  O47  1  0.859268  0.639901  0.224659  1
  O  O48  1  0.932305  0.383733  0.404930  1
  O  O49  1  0.905028  0.965102  0.304440  1
  O  O50  1  0.991283  0.837613  0.936362  1
  O  O51  1  0.970645  0.207617  0.591200  1
