# generated using pymatgen
data_Li4V3OF11
_symmetry_space_group_name_H-M   'P 1'
_cell_length_a   5.28245378
_cell_length_b   5.51333570
_cell_length_c   16.01823161
_cell_angle_alpha   80.94387149
_cell_angle_beta   89.68411420
_cell_angle_gamma   88.51018986
_symmetry_Int_Tables_number   1
_chemical_formula_structural   Li4V3OF11
_chemical_formula_sum   'Li8 V6 O2 F22'
_cell_volume   460.54254780
_cell_formula_units_Z   2
loop_
 _symmetry_equiv_pos_site_id
 _symmetry_equiv_pos_as_xyz
  1  'x, y, z'
loop_
 _atom_site_type_symbol
 _atom_site_label
 _atom_site_symmetry_multiplicity
 _atom_site_fract_x
 _atom_site_fract_y
 _atom_site_fract_z
 _atom_site_occupancy
  Li  Li0  1  0.683226  0.147246  0.175195  1
  Li  Li1  1  0.989056  0.070130  0.767648  1
  Li  Li2  1  0.482340  0.105962  0.897085  1
  Li  Li3  1  0.202203  0.689608  0.154372  1
  Li  Li4  1  0.317202  0.519531  0.491492  1
  Li  Li5  1  0.518210  0.560269  0.769656  1
  Li  Li6  1  0.010957  0.596895  0.899009  1
  Li  Li7  1  0.796287  0.977635  0.512473  1
  V  V8  1  0.481164  0.173989  0.668055  1
  V  V9  1  0.999529  0.333483  0.333189  1
  V  V10  1  0.519032  0.492593  0.998722  1
  V  V11  1  0.988085  0.025906  0.996679  1
  V  V12  1  0.012270  0.640752  0.669990  1
  V  V13  1  0.499714  0.833511  0.333185  1
  O  O14  1  0.188668  0.340914  0.701628  1
  O  O15  1  0.811294  0.325578  0.964945  1
  F  F16  1  0.195867  0.021718  0.353362  1
  F  F17  1  0.327627  0.173275  0.017643  1
  F  F18  1  0.701943  0.142712  0.298669  1
  F  F19  1  0.127587  0.004045  0.881678  1
  F  F20  1  0.087280  0.395081  0.216739  1
  F  F21  1  0.425109  0.202477  0.548624  1
  F  F22  1  0.631384  0.152992  0.785276  1
  F  F23  1  0.575482  0.464052  0.117940  1
  F  F24  1  0.912208  0.271509  0.450316  1
  F  F25  1  0.297907  0.523761  0.368123  1
  F  F26  1  0.191953  0.687964  0.022213  1
  F  F27  1  0.672671  0.493266  0.648965  1
  F  F28  1  0.803866  0.644634  0.313396  1
  F  F29  1  0.368696  0.514173  0.881378  1
  F  F30  1  0.423627  0.877960  0.214092  1
  F  F31  1  0.079915  0.712581  0.550228  1
  F  F32  1  0.920101  0.954122  0.116308  1
  F  F33  1  0.576092  0.788691  0.452674  1
  F  F34  1  0.872907  0.662858  0.784866  1
  F  F35  1  0.307600  0.840558  0.707642  1
  F  F36  1  0.693254  0.825665  0.958864  1
  F  F37  1  0.808371  0.978762  0.644471  1
