# generated using pymatgen
data_Li2MnV4CuO12
_symmetry_space_group_name_H-M   'P 1'
_cell_length_a   6.93689758
_cell_length_b   6.93689824
_cell_length_c   5.84315760
_cell_angle_alpha   74.47444870
_cell_angle_beta   105.52555053
_cell_angle_gamma   96.82786528
_symmetry_Int_Tables_number   1
_chemical_formula_structural   Li2MnV4CuO12
_chemical_formula_sum   'Li2 Mn1 V4 Cu1 O12'
_cell_volume   260.69260251
_cell_formula_units_Z   1
loop_
 _symmetry_equiv_pos_site_id
 _symmetry_equiv_pos_as_xyz
  1  'x, y, z'
loop_
 _atom_site_type_symbol
 _atom_site_label
 _atom_site_symmetry_multiplicity
 _atom_site_fract_x
 _atom_site_fract_y
 _atom_site_fract_z
 _atom_site_occupancy
  Li  Li0  1  0.245194  0.245194  0.250000  1
  Li  Li1  1  0.761493  0.761493  0.750000  1
  Mn  Mn2  1  0.914067  0.914067  0.250000  1
  V  V3  1  0.202224  0.606778  0.772262  1
  V  V4  1  0.391219  0.801286  0.272282  1
  V  V5  1  0.606778  0.202224  0.727738  1
  V  V6  1  0.801286  0.391219  0.227718  1
  Cu  Cu7  1  0.100633  0.100633  0.750000  1
  O  O8  1  0.018704  0.782192  0.651067  1
  O  O9  1  0.100732  0.367843  0.829734  1
  O  O10  1  0.207146  0.980642  0.157645  1
  O  O11  1  0.357451  0.637126  0.562593  1
  O  O12  1  0.367843  0.100732  0.670266  1
  O  O13  1  0.352331  0.640258  0.060096  1
  O  O14  1  0.637126  0.357451  0.937407  1
  O  O15  1  0.634249  0.898434  0.337902  1
  O  O16  1  0.640258  0.352331  0.439904  1
  O  O17  1  0.782192  0.018704  0.848933  1
  O  O18  1  0.898434  0.634249  0.162098  1
  O  O19  1  0.980642  0.207146  0.342355  1
