# generated using pymatgen
data_Li11V12(CoO8)4
_symmetry_space_group_name_H-M   'P 1'
_cell_length_a   8.32889049
_cell_length_b   8.41712544
_cell_length_c   8.33218916
_cell_angle_alpha   89.86487087
_cell_angle_beta   89.99560584
_cell_angle_gamma   90.14089567
_symmetry_Int_Tables_number   1
_chemical_formula_structural   Li11V12(CoO8)4
_chemical_formula_sum   'Li11 V12 Co4 O32'
_cell_volume   584.12736119
_cell_formula_units_Z   1
loop_
 _symmetry_equiv_pos_site_id
 _symmetry_equiv_pos_as_xyz
  1  'x, y, z'
loop_
 _atom_site_type_symbol
 _atom_site_label
 _atom_site_symmetry_multiplicity
 _atom_site_fract_x
 _atom_site_fract_y
 _atom_site_fract_z
 _atom_site_occupancy
  Li  Li0  1  0.874050  0.124815  0.124147  1
  Li  Li1  1  0.241332  0.252117  0.747839  1
  Li  Li2  1  0.881830  0.369176  0.375439  1
  Li  Li3  1  0.628610  0.369553  0.120373  1
  Li  Li4  1  0.873223  0.617616  0.628629  1
  Li  Li5  1  0.131707  0.624983  0.381791  1
  Li  Li6  1  0.618161  0.625016  0.868113  1
  Li  Li7  1  0.378748  0.632431  0.123184  1
  Li  Li8  1  0.870349  0.880691  0.878670  1
  Li  Li9  1  0.125675  0.880576  0.132239  1
  Li  Li10  1  0.497890  0.997769  0.491159  1
  V  V11  1  0.374396  0.118583  0.128712  1
  V  V12  1  0.622448  0.125019  0.872432  1
  V  V13  1  0.878977  0.131793  0.624601  1
  V  V14  1  0.129859  0.366499  0.115821  1
  V  V15  1  0.374785  0.363686  0.387498  1
  V  V16  1  0.626368  0.365393  0.627126  1
  V  V17  1  0.871417  0.625021  0.121484  1
  V  V18  1  0.129328  0.620923  0.866667  1
  V  V19  1  0.616517  0.629022  0.379289  1
  V  V20  1  0.377042  0.884622  0.876228  1
  V  V21  1  0.137355  0.886189  0.624832  1
  V  V22  1  0.865775  0.883400  0.380142  1
  Co  Co23  1  0.127287  0.124963  0.377263  1
  Co  Co24  1  0.879923  0.370424  0.873566  1
  Co  Co25  1  0.375766  0.624972  0.625863  1
  Co  Co26  1  0.623313  0.879594  0.129700  1
  O  O27  1  0.895527  0.128327  0.387815  1
  O  O28  1  0.116661  0.115722  0.609596  1
  O  O29  1  0.380370  0.120873  0.888402  1
  O  O30  1  0.616071  0.114272  0.111339  1
  O  O31  1  0.861503  0.135795  0.866361  1
  O  O32  1  0.638527  0.129136  0.630462  1
  O  O33  1  0.359673  0.134283  0.366497  1
  O  O34  1  0.137585  0.121685  0.145530  1
  O  O35  1  0.873734  0.356629  0.635787  1
  O  O36  1  0.648461  0.371151  0.865451  1
  O  O37  1  0.375079  0.354795  0.143217  1
  O  O38  1  0.137070  0.359297  0.357541  1
  O  O39  1  0.378354  0.380987  0.605642  1
  O  O40  1  0.615877  0.387854  0.380682  1
  O  O41  1  0.886635  0.377347  0.110711  1
  O  O42  1  0.115380  0.389612  0.879665  1
  O  O43  1  0.627448  0.606823  0.611230  1
  O  O44  1  0.389232  0.605708  0.367359  1
  O  O45  1  0.116601  0.620974  0.108866  1
  O  O46  1  0.884722  0.606979  0.881113  1
  O  O47  1  0.630996  0.642882  0.134502  1
  O  O48  1  0.858843  0.628899  0.366404  1
  O  O49  1  0.117245  0.644361  0.639218  1
  O  O50  1  0.361212  0.643117  0.877433  1
  O  O51  1  0.629647  0.860280  0.364798  1
  O  O52  1  0.860496  0.872577  0.136705  1
  O  O53  1  0.130442  0.862050  0.865752  1
  O  O54  1  0.355627  0.868996  0.628275  1
  O  O55  1  0.107463  0.890756  0.387093  1
  O  O56  1  0.893017  0.895395  0.624984  1
  O  O57  1  0.615460  0.878909  0.898292  1
  O  O58  1  0.385498  0.893618  0.123346  1
