# generated using pymatgen
data_Li2MnBAsO7
_symmetry_space_group_name_H-M   'P 1'
_cell_length_a   8.76085207
_cell_length_b   6.39592877
_cell_length_c   5.16810392
_cell_angle_alpha   90.00000000
_cell_angle_beta   86.77644989
_cell_angle_gamma   90.00000000
_symmetry_Int_Tables_number   1
_chemical_formula_structural   Li2MnBAsO7
_chemical_formula_sum   'Li4 Mn2 B2 As2 O14'
_cell_volume   289.13022250
_cell_formula_units_Z   2
loop_
 _symmetry_equiv_pos_site_id
 _symmetry_equiv_pos_as_xyz
  1  'x, y, z'
loop_
 _atom_site_type_symbol
 _atom_site_label
 _atom_site_symmetry_multiplicity
 _atom_site_fract_x
 _atom_site_fract_y
 _atom_site_fract_z
 _atom_site_occupancy
  Li  Li0  1  0.195630  0.518542  0.227421  1
  Li  Li1  1  0.195630  0.981458  0.227421  1
  Li  Li2  1  0.804370  0.481458  0.772579  1
  Li  Li3  1  0.804370  0.018542  0.772579  1
  Mn  Mn4  1  0.325037  0.750000  0.788211  1
  Mn  Mn5  1  0.674963  0.250000  0.211789  1
  B  B6  1  0.053747  0.750000  0.731682  1
  B  B7  1  0.946253  0.250000  0.268318  1
  As  As8  1  0.428646  0.250000  0.716421  1
  As  As9  1  0.571354  0.750000  0.283579  1
  O  O10  1  0.095461  0.250000  0.295577  1
  O  O11  1  0.125943  0.750000  0.970240  1
  O  O12  1  0.171385  0.750000  0.531402  1
  O  O13  1  0.310822  0.048288  0.814966  1
  O  O14  1  0.310822  0.451712  0.814966  1
  O  O15  1  0.397963  0.750000  0.146322  1
  O  O16  1  0.469913  0.250000  0.386342  1
  O  O17  1  0.530087  0.750000  0.613658  1
  O  O18  1  0.602037  0.250000  0.853678  1
  O  O19  1  0.689178  0.548288  0.185034  1
  O  O20  1  0.689178  0.951712  0.185034  1
  O  O21  1  0.828615  0.250000  0.468598  1
  O  O22  1  0.874057  0.250000  0.029760  1
  O  O23  1  0.904540  0.750000  0.704423  1
