# generated using pymatgen
data_LiCoPO4F
_symmetry_space_group_name_H-M   'P 1'
_cell_length_a   10.70966909
_cell_length_b   6.30282634
_cell_length_c   10.94391591
_cell_angle_alpha   90.28539445
_cell_angle_beta   89.56863900
_cell_angle_gamma   89.75913940
_symmetry_Int_Tables_number   1
_chemical_formula_structural   LiCoPO4F
_chemical_formula_sum   'Li8 Co8 P8 O32 F8'
_cell_volume   738.69054224
_cell_formula_units_Z   8
loop_
 _symmetry_equiv_pos_site_id
 _symmetry_equiv_pos_as_xyz
  1  'x, y, z'
loop_
 _atom_site_type_symbol
 _atom_site_label
 _atom_site_symmetry_multiplicity
 _atom_site_fract_x
 _atom_site_fract_y
 _atom_site_fract_z
 _atom_site_occupancy
  Li  Li0  1  0.227946  0.248183  0.084558  1
  Li  Li1  1  0.238594  0.537473  0.337745  1
  Li  Li2  1  0.441019  0.250923  0.774629  1
  Li  Li3  1  0.723140  0.249327  0.410817  1
  Li  Li4  1  0.733319  0.972048  0.173481  1
  Li  Li5  1  0.762304  0.487625  0.667565  1
  Li  Li6  1  0.776858  0.755472  0.910945  1
  Li  Li7  1  0.966115  0.242631  0.731340  1
  Co  Co8  1  0.001665  0.998360  0.000565  1
  Co  Co9  1  0.998404  0.508707  0.003896  1
  Co  Co10  1  0.005599  0.987430  0.495416  1
  Co  Co11  1  0.998472  0.502263  0.496839  1
  Co  Co12  1  0.494359  0.990839  0.500374  1
  Co  Co13  1  0.494491  0.505347  0.499487  1
  Co  Co14  1  0.497829  0.998441  0.000324  1
  Co  Co15  1  0.502679  0.507632  0.003912  1
  P  P16  1  0.041334  0.747562  0.739678  1
  P  P17  1  0.239410  0.748359  0.078512  1
  P  P18  1  0.261840  0.252562  0.573840  1
  P  P19  1  0.463350  0.261916  0.237288  1
  P  P20  1  0.542621  0.741662  0.761424  1
  P  P21  1  0.737793  0.751046  0.423218  1
  P  P22  1  0.762979  0.257421  0.922851  1
  P  P23  1  0.960893  0.236323  0.261831  1
  O  O24  1  0.016487  0.245813  0.127950  1
  O  O25  1  0.019295  0.043027  0.329100  1
  O  O26  1  0.011574  0.438229  0.328147  1
  O  O27  1  0.121766  0.250199  0.533658  1
  O  O28  1  0.178850  0.734048  0.748654  1
  O  O29  1  0.172307  0.548467  0.022550  1
  O  O30  1  0.174640  0.952370  0.025629  1
  O  O31  1  0.235126  0.743710  0.214652  1
  O  O32  1  0.278199  0.263265  0.709031  1
  O  O33  1  0.327620  0.051995  0.516706  1
  O  O34  1  0.322524  0.446378  0.503806  1
  O  O35  1  0.322375  0.274965  0.238958  1
  O  O36  1  0.376829  0.751796  0.027141  1
  O  O37  1  0.484659  0.549219  0.830877  1
  O  O38  1  0.498397  0.951753  0.826129  1
  O  O39  1  0.490108  0.744102  0.628689  1
  O  O40  1  0.520461  0.256110  0.368522  1
  O  O41  1  0.518178  0.061533  0.168278  1
  O  O42  1  0.518594  0.458528  0.168733  1
  O  O43  1  0.622772  0.260093  0.961974  1
  O  O44  1  0.683947  0.719204  0.760138  1
  O  O45  1  0.677950  0.546957  0.483783  1
  O  O46  1  0.671613  0.953562  0.478001  1
  O  O47  1  0.734069  0.747832  0.286879  1
  O  O48  1  0.784591  0.257693  0.786167  1
  O  O49  1  0.819285  0.052926  0.984420  1
  O  O50  1  0.825103  0.458479  0.981412  1
  O  O51  1  0.820103  0.217445  0.259718  1
  O  O52  1  0.875636  0.750123  0.473397  1
  O  O53  1  0.976681  0.551001  0.674485  1
  O  O54  1  0.993725  0.950265  0.670586  1
  O  O55  1  0.977713  0.757516  0.872966  1
  F  F56  1  0.033956  0.250803  0.891879  1
  F  F57  1  0.118529  0.733682  0.482211  1
  F  F58  1  0.382627  0.250417  0.981145  1
  F  F59  1  0.463816  0.744438  0.390821  1
  F  F60  1  0.534035  0.257987  0.611171  1
  F  F61  1  0.622675  0.761040  0.015444  1
  F  F62  1  0.879495  0.252640  0.520803  1
  F  F63  1  0.955880  0.759035  0.107854  1
