# generated using pymatgen
data_LiMn2Cr2O8
_symmetry_space_group_name_H-M   'P 1'
_cell_length_a   5.86255355
_cell_length_b   10.29680076
_cell_length_c   10.11933056
_cell_angle_alpha   70.82917258
_cell_angle_beta   90.38480205
_cell_angle_gamma   89.92466879
_symmetry_Int_Tables_number   1
_chemical_formula_structural   LiMn2Cr2O8
_chemical_formula_sum   'Li4 Mn8 Cr8 O32'
_cell_volume   576.96591401
_cell_formula_units_Z   4
loop_
 _symmetry_equiv_pos_site_id
 _symmetry_equiv_pos_as_xyz
  1  'x, y, z'
loop_
 _atom_site_type_symbol
 _atom_site_label
 _atom_site_symmetry_multiplicity
 _atom_site_fract_x
 _atom_site_fract_y
 _atom_site_fract_z
 _atom_site_occupancy
  Li  Li0  1  0.500658  0.748809  0.248902  1
  Li  Li1  1  0.736956  0.247260  0.995304  1
  Li  Li2  1  0.000093  0.998547  0.502056  1
  Li  Li3  1  0.001004  0.510364  0.997216  1
  Mn  Mn4  1  0.006253  0.502927  0.500640  1
  Mn  Mn5  1  0.998366  0.996078  -0.000106  1
  Mn  Mn6  1  0.246430  0.497851  0.750733  1
  Mn  Mn7  1  0.249150  0.004290  0.245073  1
  Mn  Mn8  1  0.499675  0.502849  0.999817  1
  Mn  Mn9  1  0.498687  0.999312  0.501708  1
  Mn  Mn10  1  0.750209  0.000384  0.751801  1
  Mn  Mn11  1  0.748736  0.000463  0.248762  1
  Cr  Cr12  1  0.255367  0.998647  0.757386  1
  Cr  Cr13  1  0.251513  0.497352  0.253846  1
  Cr  Cr14  1  0.497496  0.750166  0.750330  1
  Cr  Cr15  1  0.498006  0.248034  0.252201  1
  Cr  Cr16  1  0.741198  0.502526  0.740143  1
  Cr  Cr17  1  0.751902  0.494322  0.257245  1
  Cr  Cr18  1  0.004418  0.249866  0.746864  1
  Cr  Cr19  1  0.001378  0.750690  0.249291  1
  O  O20  1  0.003138  0.398651  0.372819  1
  O  O21  1  0.996300  0.896358  0.871491  1
  O  O22  1  0.991063  0.104350  0.128323  1
  O  O23  1  0.223045  0.388182  0.631063  1
  O  O24  1  0.218865  0.108410  0.872684  1
  O  O25  1  0.274464  0.891201  0.627310  1
  O  O26  1  0.228518  0.614765  0.367053  1
  O  O27  1  0.273295  0.610823  0.871764  1
  O  O28  1  0.226005  0.885448  0.133128  1
  O  O29  1  0.273711  0.110023  0.370762  1
  O  O30  1  0.275217  0.390451  0.128907  1
  O  O31  1  0.504210  0.101400  0.631523  1
  O  O32  1  0.500406  0.395903  0.871017  1
  O  O33  1  0.497529  0.897159  0.359986  1
  O  O34  1  0.500063  0.888488  0.850475  1
  O  O35  1  0.494513  0.610855  0.650368  1
  O  O36  1  0.505113  0.386211  0.349262  1
  O  O37  1  0.501935  0.603845  0.136262  1
  O  O38  1  0.504312  0.116504  0.143698  1
  O  O39  1  0.724680  0.889022  0.629860  1
  O  O40  1  0.724484  0.609226  0.871751  1
  O  O41  1  0.785068  0.391616  0.627769  1
  O  O42  1  0.782043  0.115317  0.872187  1
  O  O43  1  0.724883  0.108126  0.372727  1
  O  O44  1  0.722773  0.384295  0.124340  1
  O  O45  1  0.778255  0.614964  0.367610  1
  O  O46  1  0.771848  0.884133  0.133996  1
  O  O47  1  0.991980  0.387911  0.855703  1
  O  O48  1  0.000902  0.106603  0.647411  1
  O  O49  1  0.004965  0.603278  0.631615  1
  O  O50  1  0.003786  0.893617  0.352494  1
  O  O51  1  0.997809  0.607230  0.148388  1
