# generated using pymatgen
data_CrNi5(PO4)6
_symmetry_space_group_name_H-M   'P 1'
_cell_length_a   8.46275220
_cell_length_b   8.60917354
_cell_length_c   8.60917380
_cell_angle_alpha   60.00000121
_cell_angle_beta   59.42598747
_cell_angle_gamma   59.42598878
_symmetry_Int_Tables_number   1
_chemical_formula_structural   CrNi5(PO4)6
_chemical_formula_sum   'Cr1 Ni5 P6 O24'
_cell_volume   439.63934277
_cell_formula_units_Z   1
loop_
 _symmetry_equiv_pos_site_id
 _symmetry_equiv_pos_as_xyz
  1  'x, y, z'
loop_
 _atom_site_type_symbol
 _atom_site_label
 _atom_site_symmetry_multiplicity
 _atom_site_fract_x
 _atom_site_fract_y
 _atom_site_fract_z
 _atom_site_occupancy
  Cr  Cr0  1  0.575096  0.141634  0.141634  1
  Ni  Ni1  1  0.003874  0.998709  0.998709  1
  Ni  Ni2  1  0.078165  0.640612  0.640612  1
  Ni  Ni3  1  0.501087  0.499638  0.499638  1
  Ni  Ni4  1  0.426311  0.857896  0.857896  1
  Ni  Ni5  1  0.924681  0.358440  0.358440  1
  P  P6  1  0.249905  0.250277  0.544313  1
  P  P7  1  0.249905  0.955503  0.250277  1
  P  P8  1  0.249905  0.544313  0.955503  1
  P  P9  1  0.750144  0.453472  0.046624  1
  P  P10  1  0.750144  0.046624  0.749761  1
  P  P11  1  0.750144  0.749761  0.453472  1
  O  O12  1  0.062333  0.106444  0.324332  1
  O  O13  1  0.062333  0.506892  0.106444  1
  O  O14  1  0.062333  0.324332  0.506892  1
  O  O15  1  0.222002  0.092292  0.742786  1
  O  O16  1  0.433703  0.174207  0.386037  1
  O  O17  1  0.288054  0.405194  0.549299  1
  O  O18  1  0.222002  0.942920  0.092292  1
  O  O19  1  0.288054  0.757454  0.405194  1
  O  O20  1  0.562097  0.606543  0.011726  1
  O  O21  1  0.288054  0.549299  0.757454  1
  O  O22  1  0.770864  0.250866  0.067290  1
  O  O23  1  0.562097  0.011726  0.819634  1
  O  O24  1  0.433703  0.006054  0.174207  1
  O  O25  1  0.222002  0.742786  0.942920  1
  O  O26  1  0.720299  0.437447  0.247539  1
  O  O27  1  0.433703  0.386037  0.006054  1
  O  O28  1  0.720299  0.247539  0.594714  1
  O  O29  1  0.770864  0.067290  0.910980  1
  O  O30  1  0.720299  0.594714  0.437447  1
  O  O31  1  0.562097  0.819634  0.606543  1
  O  O32  1  0.770864  0.910980  0.250866  1
  O  O33  1  0.937527  0.685291  0.485200  1
  O  O34  1  0.937527  0.485200  0.891982  1
  O  O35  1  0.937527  0.891982  0.685291  1
