# generated using pymatgen
data_Li4Fe2Ni5O12
_symmetry_space_group_name_H-M   'P 1'
_cell_length_a   5.03498398
_cell_length_b   8.88174715
_cell_length_c   9.77686874
_cell_angle_alpha   89.89073646
_cell_angle_beta   100.64837694
_cell_angle_gamma   90.15305010
_symmetry_Int_Tables_number   1
_chemical_formula_structural   Li4Fe2Ni5O12
_chemical_formula_sum   'Li8 Fe4 Ni10 O24'
_cell_volume   429.68525793
_cell_formula_units_Z   2
loop_
 _symmetry_equiv_pos_site_id
 _symmetry_equiv_pos_as_xyz
  1  'x, y, z'
loop_
 _atom_site_type_symbol
 _atom_site_label
 _atom_site_symmetry_multiplicity
 _atom_site_fract_x
 _atom_site_fract_y
 _atom_site_fract_z
 _atom_site_occupancy
  Li  Li0  1  0.248792  0.088859  0.997936  1
  Li  Li1  1  0.748660  0.078944  0.503954  1
  Li  Li2  1  0.492975  0.415751  0.751519  1
  Li  Li3  1  0.746016  0.416977  0.500809  1
  Li  Li4  1  0.253863  0.587421  0.501216  1
  Li  Li5  1  0.746535  0.580187  0.998262  1
  Li  Li6  1  0.005635  0.915803  0.747686  1
  Li  Li7  1  0.752764  0.915521  0.999605  1
  Fe  Fe8  1  0.002043  0.253724  0.752076  1
  Fe  Fe9  1  0.502216  0.253822  0.246979  1
  Fe  Fe10  1  0.003487  0.751463  0.253788  1
  Fe  Fe11  1  0.501160  0.754180  0.748328  1
  Ni  Ni12  1  -0.000084  0.081444  0.252833  1
  Ni  Ni13  1  0.499185  0.079126  0.747823  1
  Ni  Ni14  1  0.248864  0.247065  0.501647  1
  Ni  Ni15  1  0.751974  0.257760  0.996746  1
  Ni  Ni16  1  0.006581  0.418259  0.250687  1
  Ni  Ni17  1  0.999168  0.581181  0.751385  1
  Ni  Ni18  1  0.501372  0.581970  0.246663  1
  Ni  Ni19  1  0.245600  0.749525  0.997536  1
  Ni  Ni20  1  0.751975  0.756323  0.502762  1
  Ni  Ni21  1  0.494821  0.917580  0.249585  1
  O  O22  1  0.113817  0.103233  0.636423  1
  O  O23  1  0.366549  0.093829  0.362647  1
  O  O24  1  0.388128  0.231924  0.863556  1
  O  O25  1  0.118196  0.240156  0.136813  1
  O  O26  1  0.639035  0.091328  0.131549  1
  O  O27  1  0.880832  0.104641  0.869635  1
  O  O28  1  0.106588  0.404764  0.633765  1
  O  O29  1  0.614845  0.235554  0.629190  1
  O  O30  1  0.874027  0.249448  0.372149  1
  O  O31  1  0.375317  0.409598  0.372131  1
  O  O32  1  0.883689  0.410051  0.857259  1
  O  O33  1  0.638780  0.412753  0.131862  1
  O  O34  1  0.125507  0.595743  0.135215  1
  O  O35  1  0.373579  0.605877  0.862037  1
  O  O36  1  0.114966  0.730817  0.637118  1
  O  O37  1  0.626624  0.601482  0.632708  1
  O  O38  1  0.384631  0.742076  0.366274  1
  O  O39  1  0.871332  0.591216  0.371197  1
  O  O40  1  0.874792  0.740855  0.872420  1
  O  O41  1  0.392507  0.910276  0.863739  1
  O  O42  1  0.129350  0.910901  0.128078  1
  O  O43  1  0.621731  0.751911  0.128140  1
  O  O44  1  0.617921  0.909804  0.640697  1
  O  O45  1  0.863656  0.914157  0.365580  1
