# generated using pymatgen
data_Li3Fe(BO3)2
_symmetry_space_group_name_H-M   'P 1'
_cell_length_a   5.19323695
_cell_length_b   8.91462804
_cell_length_c   9.83789028
_cell_angle_alpha   90.00000000
_cell_angle_beta   91.03898161
_cell_angle_gamma   90.00000000
_symmetry_Int_Tables_number   1
_chemical_formula_structural   Li3Fe(BO3)2
_chemical_formula_sum   'Li12 Fe4 B8 O24'
_cell_volume   455.37788088
_cell_formula_units_Z   4
loop_
 _symmetry_equiv_pos_site_id
 _symmetry_equiv_pos_as_xyz
  1  'x, y, z'
loop_
 _atom_site_type_symbol
 _atom_site_label
 _atom_site_symmetry_multiplicity
 _atom_site_fract_x
 _atom_site_fract_y
 _atom_site_fract_z
 _atom_site_occupancy
  Li  Li0  1  0.156943  0.976047  0.667318  1
  Li  Li1  1  0.169241  0.658124  0.619719  1
  Li  Li2  1  0.176093  0.987942  0.101337  1
  Li  Li3  1  0.330759  0.158124  0.880281  1
  Li  Li4  1  0.323907  0.487942  0.398663  1
  Li  Li5  1  0.343057  0.476047  0.832682  1
  Li  Li6  1  0.656943  0.523953  0.167318  1
  Li  Li7  1  0.676093  0.512058  0.601337  1
  Li  Li8  1  0.669241  0.841876  0.119719  1
  Li  Li9  1  0.823907  0.012058  0.898663  1
  Li  Li10  1  0.830759  0.341876  0.380281  1
  Li  Li11  1  0.843057  0.023953  0.332682  1
  Fe  Fe12  1  0.150723  0.326842  0.123522  1
  Fe  Fe13  1  0.349277  0.826842  0.376478  1
  Fe  Fe14  1  0.650723  0.173158  0.623522  1
  Fe  Fe15  1  0.849277  0.673158  0.876478  1
  B  B16  1  0.167446  0.323338  0.620460  1
  B  B17  1  0.163531  0.664416  0.129903  1
  B  B18  1  0.332554  0.823338  0.879540  1
  B  B19  1  0.336469  0.164416  0.370097  1
  B  B20  1  0.663531  0.835584  0.629903  1
  B  B21  1  0.667447  0.176662  0.120460  1
  B  B22  1  0.836469  0.335584  0.870097  1
  B  B23  1  0.832553  0.676662  0.379540  1
  O  O24  1  0.092059  0.327898  0.916320  1
  O  O25  1  0.097189  0.667709  0.407285  1
  O  O26  1  0.183729  0.950330  0.880340  1
  O  O27  1  0.212359  0.026561  0.360528  1
  O  O28  1  0.201793  0.292948  0.330978  1
  O  O29  1  0.223061  0.682810  0.850420  1
  O  O30  1  0.276939  0.182810  0.649580  1
  O  O31  1  0.298207  0.792948  0.169022  1
  O  O32  1  0.287641  0.526560  0.139472  1
  O  O33  1  0.316271  0.450330  0.619660  1
  O  O34  1  0.407941  0.827898  0.583680  1
  O  O35  1  0.402811  0.167709  0.092715  1
  O  O36  1  0.597189  0.832291  0.907285  1
  O  O37  1  0.592059  0.172102  0.416320  1
  O  O38  1  0.683729  0.549670  0.380340  1
  O  O39  1  0.712359  0.473440  0.860528  1
  O  O40  1  0.701793  0.207052  0.830978  1
  O  O41  1  0.723061  0.817190  0.350420  1
  O  O42  1  0.776939  0.317190  0.149580  1
  O  O43  1  0.798207  0.707052  0.669022  1
  O  O44  1  0.787641  0.973440  0.639472  1
  O  O45  1  0.816271  0.049670  0.119660  1
  O  O46  1  0.902811  0.332291  0.592715  1
  O  O47  1  0.907941  0.672102  0.083680  1
