# generated using pymatgen
data_Li3TiFe3O8
_symmetry_space_group_name_H-M   'P 1'
_cell_length_a   10.47499670
_cell_length_b   10.47499432
_cell_length_c   14.83189237
_cell_angle_alpha   19.27319007
_cell_angle_beta   19.27317311
_cell_angle_gamma   33.21957043
_symmetry_Int_Tables_number   1
_chemical_formula_structural   Li3TiFe3O8
_chemical_formula_sum   'Li3 Ti1 Fe3 O8'
_cell_volume   153.55057438
_cell_formula_units_Z   1
loop_
 _symmetry_equiv_pos_site_id
 _symmetry_equiv_pos_as_xyz
  1  'x, y, z'
loop_
 _atom_site_type_symbol
 _atom_site_label
 _atom_site_symmetry_multiplicity
 _atom_site_fract_x
 _atom_site_fract_y
 _atom_site_fract_z
 _atom_site_occupancy
  Li  Li0  1  0.999999  0.499999  0.500002  1
  Li  Li1  1  0.499999  0.999998  0.500002  1
  Li  Li2  1  0.500000  0.500000  0.500000  1
  Ti  Ti3  1  0.000003  0.000003  -0.000003  1
  Fe  Fe4  1  0.000007  0.500000  -0.000004  1
  Fe  Fe5  1  0.500003  0.000007  -0.000006  1
  Fe  Fe6  1  0.499995  0.499998  0.000004  1
  O  O7  1  0.000001  0.000000  0.258315  1
  O  O8  1  0.999994  0.519953  0.247300  1
  O  O9  1  0.519954  0.999994  0.247300  1
  O  O10  1  0.999997  1.000000  0.741686  1
  O  O11  1  0.480046  0.480046  0.287212  1
  O  O12  1  0.000003  0.480047  0.752701  1
  O  O13  1  0.480044  0.000002  0.752704  1
  O  O14  1  0.519954  0.519954  0.712788  1
