# generated using pymatgen
data_Na5Fe2P2(CO7)2
_symmetry_space_group_name_H-M   'P 1'
_cell_length_a   8.98387901
_cell_length_b   5.22186226
_cell_length_c   6.63407518
_cell_angle_alpha   90.28228230
_cell_angle_beta   89.18070480
_cell_angle_gamma   89.44901358
_symmetry_Int_Tables_number   1
_chemical_formula_structural   Na5Fe2P2(CO7)2
_chemical_formula_sum   'Na5 Fe2 P2 C2 O14'
_cell_volume   311.17137609
_cell_formula_units_Z   1
loop_
 _symmetry_equiv_pos_site_id
 _symmetry_equiv_pos_as_xyz
  1  'x, y, z'
loop_
 _atom_site_type_symbol
 _atom_site_label
 _atom_site_symmetry_multiplicity
 _atom_site_fract_x
 _atom_site_fract_y
 _atom_site_fract_z
 _atom_site_occupancy
  Na  Na0  1  0.087286  0.767254  0.234886  1
  Na  Na1  1  0.265467  0.246888  0.484165  1
  Na  Na2  1  0.738842  0.748965  0.497140  1
  Na  Na3  1  0.739108  0.747940  0.001225  1
  Na  Na4  1  0.924128  0.241743  0.759785  1
  Fe  Fe5  1  0.346481  0.787663  0.764051  1
  Fe  Fe6  1  0.643789  0.226762  0.249393  1
  P  P7  1  0.417877  0.701192  0.254096  1
  P  P8  1  0.579913  0.287021  0.749241  1
  C  C9  1  0.063239  0.731678  0.743581  1
  C  C10  1  0.938476  0.272597  0.253247  1
  O  O11  1  0.079107  0.292265  0.268940  1
  O  O12  1  0.127199  0.955767  0.746474  1
  O  O13  1  0.151939  0.533066  0.743130  1
  O  O14  1  0.323717  0.767999  0.063995  1
  O  O15  1  0.319604  0.782232  0.442002  1
  O  O16  1  0.433298  0.133029  0.743143  1
  O  O17  1  0.448101  0.410201  0.264581  1
  O  O18  1  0.537171  0.582104  0.749923  1
  O  O19  1  0.567590  0.842187  0.250385  1
  O  O20  1  0.682734  0.229774  0.565268  1
  O  O21  1  0.675865  0.226610  0.934320  1
  O  O22  1  0.851724  0.476070  0.244540  1
  O  O23  1  0.873262  0.048249  0.244646  1
  O  O24  1  0.920604  0.711164  0.745382  1
