# generated using pymatgen
data_Mn7Ni(PO4)12
_symmetry_space_group_name_H-M   'P 1'
_cell_length_a   8.49313444
_cell_length_b   8.49734011
_cell_length_c   11.84578571
_cell_angle_alpha   89.99774571
_cell_angle_beta   89.99622303
_cell_angle_gamma   90.01785743
_symmetry_Int_Tables_number   1
_chemical_formula_structural   Mn7Ni(PO4)12
_chemical_formula_sum   'Mn7 Ni1 P12 O48'
_cell_volume   854.89908026
_cell_formula_units_Z   1
loop_
 _symmetry_equiv_pos_site_id
 _symmetry_equiv_pos_as_xyz
  1  'x, y, z'
loop_
 _atom_site_type_symbol
 _atom_site_label
 _atom_site_symmetry_multiplicity
 _atom_site_fract_x
 _atom_site_fract_y
 _atom_site_fract_z
 _atom_site_occupancy
  Mn  Mn0  1  0.249738  0.965501  0.617746  1
  Mn  Mn1  1  0.250629  0.534475  0.381724  1
  Mn  Mn2  1  0.249670  0.034935  0.117726  1
  Mn  Mn3  1  0.250172  0.464828  0.882812  1
  Mn  Mn4  1  0.750166  0.534679  0.117736  1
  Mn  Mn5  1  0.749621  0.965386  0.882414  1
  Mn  Mn6  1  0.749578  0.035058  0.381609  1
  Ni  Ni7  1  0.750079  0.464063  0.617408  1
  P  P8  1  0.036787  0.250884  0.499404  1
  P  P9  1  0.463060  0.750091  0.000081  1
  P  P10  1  0.536886  0.249931  0.999951  1
  P  P11  1  0.962649  0.749392  0.499672  1
  P  P12  1  0.107299  0.391930  0.145363  1
  P  P13  1  0.107143  0.108104  0.854883  1
  P  P14  1  0.392913  0.607008  0.645361  1
  P  P15  1  0.392405  0.892124  0.354530  1
  P  P16  1  0.608235  0.107348  0.645888  1
  P  P17  1  0.607739  0.390988  0.354566  1
  P  P18  1  0.893176  0.607720  0.854345  1
  P  P19  1  0.892631  0.891883  0.145226  1
  O  O20  1  0.059176  0.641090  0.422737  1
  O  O21  1  0.059468  0.859265  0.575925  1
  O  O22  1  0.074357  0.901036  0.158634  1
  O  O23  1  0.074891  0.599521  0.841793  1
  O  O24  1  0.149075  0.159390  0.579399  1
  O  O25  1  0.146368  0.341000  0.417503  1
  O  O26  1  0.159207  0.438399  0.026646  1
  O  O27  1  0.159444  0.061234  0.973236  1
  O  O28  1  0.153452  0.222450  0.176069  1
  O  O29  1  0.153852  0.277595  0.824203  1
  O  O30  1  0.180179  0.513583  0.227585  1
  O  O31  1  0.179020  0.987157  0.771780  1
  O  O32  1  0.320536  0.013559  0.271997  1
  O  O33  1  0.319206  0.486183  0.727527  1
  O  O34  1  0.345286  0.777042  0.676351  1
  O  O35  1  0.346533  0.722450  0.323712  1
  O  O36  1  0.339247  0.561709  0.527017  1
  O  O37  1  0.339836  0.938187  0.473136  1
  O  O38  1  0.353478  0.841035  0.081321  1
  O  O39  1  0.353351  0.659153  0.918736  1
  O  O40  1  0.426228  0.097067  0.658301  1
  O  O41  1  0.425323  0.400542  0.340629  1
  O  O42  1  0.440682  0.140863  0.076634  1
  O  O43  1  0.440853  0.359701  0.923431  1
  O  O44  1  0.559309  0.640692  0.076463  1
  O  O45  1  0.559182  0.859360  0.923285  1
  O  O46  1  0.572554  0.604468  0.660348  1
  O  O47  1  0.574302  0.901005  0.342009  1
  O  O48  1  0.647081  0.340778  0.080777  1
  O  O49  1  0.646114  0.158792  0.918529  1
  O  O50  1  0.660479  0.062764  0.526677  1
  O  O51  1  0.655377  0.441699  0.471095  1
  O  O52  1  0.653681  0.221628  0.322801  1
  O  O53  1  0.652901  0.274049  0.679548  1
  O  O54  1  0.676930  0.513011  0.270448  1
  O  O55  1  0.680187  0.984929  0.727910  1
  O  O56  1  0.820575  0.013395  0.227775  1
  O  O57  1  0.820845  0.484794  0.775137  1
  O  O58  1  0.846499  0.722244  0.176255  1
  O  O59  1  0.847870  0.777625  0.824227  1
  O  O60  1  0.841360  0.562524  0.973613  1
  O  O61  1  0.840110  0.938481  0.026838  1
  O  O62  1  0.853434  0.663609  0.582582  1
  O  O63  1  0.853978  0.840848  0.418070  1
  O  O64  1  0.925469  0.098963  0.841612  1
  O  O65  1  0.925651  0.401274  0.158942  1
  O  O66  1  0.940603  0.141026  0.422922  1
  O  O67  1  0.945887  0.356506  0.579396  1
