# generated using pymatgen
data_MnAlO3
_symmetry_space_group_name_H-M   'P 1'
_cell_length_a   4.98961970
_cell_length_b   4.86261762
_cell_length_c   5.38276141
_cell_angle_alpha   65.45844261
_cell_angle_beta   119.47650424
_cell_angle_gamma   117.59520818
_symmetry_Int_Tables_number   1
_chemical_formula_structural   MnAlO3
_chemical_formula_sum   'Mn2 Al2 O6'
_cell_volume   97.74293990
_cell_formula_units_Z   2
loop_
 _symmetry_equiv_pos_site_id
 _symmetry_equiv_pos_as_xyz
  1  'x, y, z'
loop_
 _atom_site_type_symbol
 _atom_site_label
 _atom_site_symmetry_multiplicity
 _atom_site_fract_x
 _atom_site_fract_y
 _atom_site_fract_z
 _atom_site_occupancy
  Mn  Mn0  1  0.654471  0.354445  0.940713  1
  Mn  Mn1  1  0.345484  0.645583  0.059231  1
  Al  Al2  1  0.845138  0.148701  0.545856  1
  Al  Al3  1  0.154825  0.851307  0.454116  1
  O  O4  1  0.974729  0.784878  0.740361  1
  O  O5  1  0.568427  0.081696  0.718512  1
  O  O6  1  0.241374  0.447854  0.743390  1
  O  O7  1  0.758534  0.552138  0.256599  1
  O  O8  1  0.431671  0.918120  0.281678  1
  O  O9  1  0.025345  0.215278  0.259545  1
