# generated using pymatgen
data_LiTiP2O7
_symmetry_space_group_name_H-M   'P 1'
_cell_length_a   7.29385910
_cell_length_b   8.01056678
_cell_length_c   9.68414692
_cell_angle_alpha   90.00000000
_cell_angle_beta   110.55879024
_cell_angle_gamma   90.00000000
_symmetry_Int_Tables_number   1
_chemical_formula_structural   LiTiP2O7
_chemical_formula_sum   'Li4 Ti4 P8 O28'
_cell_volume   529.78875787
_cell_formula_units_Z   4
loop_
 _symmetry_equiv_pos_site_id
 _symmetry_equiv_pos_as_xyz
  1  'x, y, z'
loop_
 _atom_site_type_symbol
 _atom_site_label
 _atom_site_symmetry_multiplicity
 _atom_site_fract_x
 _atom_site_fract_y
 _atom_site_fract_z
 _atom_site_occupancy
  Li  Li0  1  0.296755  0.021946  0.785021  1
  Li  Li1  1  0.296755  0.478054  0.285021  1
  Li  Li2  1  0.703245  0.521946  0.714979  1
  Li  Li3  1  0.703245  0.978054  0.214980  1
  Ti  Ti4  1  0.261210  0.493586  0.747591  1
  Ti  Ti5  1  0.261210  0.006415  0.247591  1
  Ti  Ti6  1  0.738790  0.993586  0.752409  1
  Ti  Ti7  1  0.738790  0.506414  0.252409  1
  P  P8  1  0.081563  0.241370  0.955950  1
  P  P9  1  0.081563  0.258630  0.455950  1
  P  P10  1  0.330474  0.788120  0.548446  1
  P  P11  1  0.669526  0.288120  0.951554  1
  P  P12  1  0.330474  0.711880  0.048446  1
  P  P13  1  0.669526  0.211880  0.451554  1
  P  P14  1  0.918437  0.741370  0.544050  1
  P  P15  1  0.918437  0.758630  0.044050  1
  O  O16  1  0.032339  0.080329  0.863343  1
  O  O17  1  0.191853  0.367096  0.898674  1
  O  O18  1  0.032339  0.419671  0.363343  1
  O  O19  1  0.122841  0.835216  0.564998  1
  O  O20  1  0.311420  0.700023  0.886360  1
  O  O21  1  0.186553  0.285607  0.622049  1
  O  O22  1  0.191853  0.132904  0.398674  1
  O  O23  1  0.385281  0.608941  0.605766  1
  O  O24  1  0.122841  0.664784  0.064998  1
  O  O25  1  0.543827  0.420746  0.846129  1
  O  O26  1  0.311420  0.799977  0.386360  1
  O  O27  1  0.186553  0.214393  0.122049  1
  O  O28  1  0.456173  0.920746  0.653871  1
  O  O29  1  0.614719  0.108941  0.894234  1
  O  O30  1  0.385281  0.891059  0.105766  1
  O  O31  1  0.543827  0.079254  0.346129  1
  O  O32  1  0.813447  0.785607  0.877951  1
  O  O33  1  0.688580  0.200023  0.613640  1
  O  O34  1  0.456173  0.579254  0.153871  1
  O  O35  1  0.877159  0.335216  0.935002  1
  O  O36  1  0.614719  0.391059  0.394234  1
  O  O37  1  0.808147  0.867096  0.601326  1
  O  O38  1  0.813447  0.714393  0.377951  1
  O  O39  1  0.688580  0.299977  0.113640  1
  O  O40  1  0.877159  0.164784  0.435002  1
  O  O41  1  0.967661  0.580329  0.636657  1
  O  O42  1  0.808147  0.632904  0.101326  1
  O  O43  1  0.967661  0.919671  0.136657  1
