# generated using pymatgen
data_Mn3SbO8
_symmetry_space_group_name_H-M   'P 1'
_cell_length_a   8.41070399
_cell_length_b   8.41077793
_cell_length_c   8.71104937
_cell_angle_alpha   90.00336554
_cell_angle_beta   89.99588827
_cell_angle_gamma   90.00233800
_symmetry_Int_Tables_number   1
_chemical_formula_structural   Mn3SbO8
_chemical_formula_sum   'Mn12 Sb4 O32'
_cell_volume   616.22453809
_cell_formula_units_Z   4
loop_
 _symmetry_equiv_pos_site_id
 _symmetry_equiv_pos_as_xyz
  1  'x, y, z'
loop_
 _atom_site_type_symbol
 _atom_site_label
 _atom_site_symmetry_multiplicity
 _atom_site_fract_x
 _atom_site_fract_y
 _atom_site_fract_z
 _atom_site_occupancy
  Mn  Mn0  1  0.114028  0.136116  0.625007  1
  Mn  Mn1  1  0.129404  0.382111  0.876467  1
  Mn  Mn2  1  0.132036  0.620721  0.126450  1
  Mn  Mn3  1  0.368012  0.379274  0.626420  1
  Mn  Mn4  1  0.370565  0.617904  0.376530  1
  Mn  Mn5  1  0.385905  0.863968  0.125066  1
  Mn  Mn6  1  0.614132  0.363807  0.375063  1
  Mn  Mn7  1  0.629314  0.117998  0.123478  1
  Mn  Mn8  1  0.632054  0.879390  0.873516  1
  Mn  Mn9  1  0.867933  0.120653  0.373472  1
  Mn  Mn10  1  0.870638  0.881978  0.623502  1
  Mn  Mn11  1  0.885928  0.636258  0.875151  1
  Sb  Sb12  1  0.124681  0.874866  0.375034  1
  Sb  Sb13  1  0.375263  0.125149  0.874960  1
  Sb  Sb14  1  0.624781  0.625005  0.625029  1
  Sb  Sb15  1  0.875230  0.374954  0.124937  1
  O  O16  1  0.097645  0.110219  0.371313  1
  O  O17  1  0.101844  0.896708  0.608007  1
  O  O18  1  0.118162  0.613901  0.903701  1
  O  O19  1  0.139819  0.152335  0.878609  1
  O  O20  1  0.119051  0.389221  0.105334  1
  O  O21  1  0.136280  0.368200  0.653687  1
  O  O22  1  0.139061  0.630863  0.355334  1
  O  O23  1  0.146682  0.851934  0.142006  1
  O  O24  1  0.353295  0.148060  0.641965  1
  O  O25  1  0.360921  0.369101  0.855318  1
  O  O26  1  0.363748  0.631844  0.153731  1
  O  O27  1  0.380941  0.610754  0.605392  1
  O  O28  1  0.360163  0.847657  0.378685  1
  O  O29  1  0.381906  0.386087  0.403709  1
  O  O30  1  0.398122  0.103329  0.107980  1
  O  O31  1  0.402387  0.889751  0.871347  1
  O  O32  1  0.597721  0.389630  0.628629  1
  O  O33  1  0.601815  0.603255  0.392068  1
  O  O34  1  0.618105  0.886238  0.096309  1
  O  O35  1  0.639740  0.347775  0.121407  1
  O  O36  1  0.619132  0.110920  0.894643  1
  O  O37  1  0.636185  0.131798  0.346303  1
  O  O38  1  0.639207  0.869002  0.644655  1
  O  O39  1  0.646685  0.648135  0.858067  1
  O  O40  1  0.853367  0.351897  0.357978  1
  O  O41  1  0.860805  0.130962  0.144606  1
  O  O42  1  0.863837  0.868252  0.846316  1
  O  O43  1  0.880864  0.889067  0.394656  1
  O  O44  1  0.860263  0.652212  0.621461  1
  O  O45  1  0.881838  0.113790  0.596262  1
  O  O46  1  0.898203  0.396744  0.891987  1
  O  O47  1  0.902300  0.610346  0.128590  1
