# generated using pymatgen
data_LiCoSiO4
_symmetry_space_group_name_H-M   'P 1'
_cell_length_a   10.21425805
_cell_length_b   13.38401400
_cell_length_c   5.09209752
_cell_angle_alpha   90.00000000
_cell_angle_beta   90.00000000
_cell_angle_gamma   90.00000000
_symmetry_Int_Tables_number   1
_chemical_formula_structural   LiCoSiO4
_chemical_formula_sum   'Li8 Co8 Si8 O32'
_cell_volume   696.12931054
_cell_formula_units_Z   8
loop_
 _symmetry_equiv_pos_site_id
 _symmetry_equiv_pos_as_xyz
  1  'x, y, z'
loop_
 _atom_site_type_symbol
 _atom_site_label
 _atom_site_symmetry_multiplicity
 _atom_site_fract_x
 _atom_site_fract_y
 _atom_site_fract_z
 _atom_site_occupancy
  Li  Li0  1  0.033654  0.502890  0.913890  1
  Li  Li1  1  0.215151  0.749747  0.557464  1
  Li  Li2  1  0.284849  0.249747  0.557464  1
  Li  Li3  1  0.466346  0.002890  0.913890  1
  Li  Li4  1  0.533654  0.502890  0.086110  1
  Li  Li5  1  0.715151  0.749747  0.442536  1
  Li  Li6  1  0.784849  0.249747  0.442536  1
  Li  Li7  1  0.966346  0.002890  0.086110  1
  Co  Co8  1  0.039310  0.752833  0.066570  1
  Co  Co9  1  0.213824  0.000174  0.555975  1
  Co  Co10  1  0.286176  0.500174  0.555975  1
  Co  Co11  1  0.460690  0.252833  0.066570  1
  Co  Co12  1  0.539310  0.752833  0.933430  1
  Co  Co13  1  0.713824  0.000174  0.444025  1
  Co  Co14  1  0.786176  0.500174  0.444025  1
  Co  Co15  1  0.960690  0.252833  0.933430  1
  Si  Si16  1  0.033896  0.375065  0.431649  1
  Si  Si17  1  0.214163  0.128696  0.053571  1
  Si  Si18  1  0.285838  0.628696  0.053571  1
  Si  Si19  1  0.466104  0.875065  0.431649  1
  Si  Si20  1  0.533896  0.375065  0.568351  1
  Si  Si21  1  0.714163  0.128696  0.946429  1
  Si  Si22  1  0.785837  0.628696  0.946429  1
  Si  Si23  1  0.966104  0.875065  0.568351  1
  O  O24  1  0.993989  0.869903  0.886789  1
  O  O25  1  0.959060  0.474413  0.550643  1
  O  O26  1  0.031717  0.775995  0.428623  1
  O  O27  1  0.055918  0.135862  0.994589  1
  O  O28  1  0.191060  0.381762  0.497364  1
  O  O29  1  0.228544  0.530086  0.896858  1
  O  O30  1  0.289807  0.228696  0.944176  1
  O  O31  1  0.243728  0.119478  0.369995  1
  O  O32  1  0.256272  0.619478  0.369995  1
  O  O33  1  0.210193  0.728696  0.944176  1
  O  O34  1  0.271456  0.030086  0.896858  1
  O  O35  1  0.308940  0.881762  0.497364  1
  O  O36  1  0.444082  0.635862  0.994589  1
  O  O37  1  0.468283  0.275995  0.428623  1
  O  O38  1  0.540940  0.974413  0.550643  1
  O  O39  1  0.506011  0.369903  0.886789  1
  O  O40  1  0.493989  0.869903  0.113211  1
  O  O41  1  0.459060  0.474413  0.449357  1
  O  O42  1  0.531717  0.775995  0.571377  1
  O  O43  1  0.555918  0.135862  0.005411  1
  O  O44  1  0.691060  0.381762  0.502636  1
  O  O45  1  0.728544  0.530086  0.103142  1
  O  O46  1  0.789807  0.228696  0.055824  1
  O  O47  1  0.743728  0.119478  0.630005  1
  O  O48  1  0.756272  0.619478  0.630005  1
  O  O49  1  0.710193  0.728696  0.055824  1
  O  O50  1  0.771456  0.030086  0.103142  1
  O  O51  1  0.808940  0.881762  0.502636  1
  O  O52  1  0.944082  0.635862  0.005411  1
  O  O53  1  0.968283  0.275995  0.571377  1
  O  O54  1  0.040940  0.974413  0.449357  1
  O  O55  1  0.006011  0.369903  0.113211  1
