# generated using pymatgen
data_LiMnF4
_symmetry_space_group_name_H-M   'P 1'
_cell_length_a   6.01427897
_cell_length_b   10.18653248
_cell_length_c   10.18762613
_cell_angle_alpha   84.98254626
_cell_angle_beta   107.25115624
_cell_angle_gamma   107.17169150
_symmetry_Int_Tables_number   1
_chemical_formula_structural   LiMnF4
_chemical_formula_sum   'Li8 Mn8 F32'
_cell_volume   569.49375292
_cell_formula_units_Z   8
loop_
 _symmetry_equiv_pos_site_id
 _symmetry_equiv_pos_as_xyz
  1  'x, y, z'
loop_
 _atom_site_type_symbol
 _atom_site_label
 _atom_site_symmetry_multiplicity
 _atom_site_fract_x
 _atom_site_fract_y
 _atom_site_fract_z
 _atom_site_occupancy
  Li  Li0  1  0.873322  0.001394  0.749175  1
  Li  Li1  1  0.878728  0.501894  0.249908  1
  Li  Li2  1  0.877054  0.248451  -0.000094  1
  Li  Li3  1  0.631477  0.250071  0.503080  1
  Li  Li4  1  0.369414  0.748419  0.495602  1
  Li  Li5  1  0.125318  0.749738  0.002824  1
  Li  Li6  1  0.116629  0.496057  0.753659  1
  Li  Li7  1  0.125317  0.996596  0.250517  1
  Mn  Mn8  1  0.617525  0.999277  0.255199  1
  Mn  Mn9  1  0.882305  0.746164  0.501243  1
  Mn  Mn10  1  0.366230  0.246644  0.000983  1
  Mn  Mn11  1  0.632281  0.501113  0.754591  1
  Mn  Mn12  1  0.365337  0.500057  0.244784  1
  Mn  Mn13  1  0.637821  0.755495  0.998988  1
  Mn  Mn14  1  0.119383  0.255268  0.499708  1
  Mn  Mn15  1  0.381874  0.000214  0.744920  1
  F  F16  1  0.946567  0.097333  0.342463  1
  F  F17  1  0.903999  0.165439  0.600427  1
  F  F18  1  0.896731  0.352826  0.411239  1
  F  F19  1  0.608972  0.160322  0.100077  1
  F  F20  1  0.863575  0.665057  0.099034  1
  F  F21  1  0.484367  0.087178  0.353254  1
  F  F22  1  0.511870  0.402206  0.159308  1
  F  F23  1  0.692949  0.588265  0.344227  1
  F  F24  1  0.759586  0.913398  0.154983  1
  F  F25  1  0.951415  0.590764  0.852598  1
  F  F26  1  0.699900  0.098683  0.835059  1
  F  F27  1  0.760437  0.400886  0.665730  1
  F  F28  1  0.136738  0.149273  0.090515  1
  F  F29  1  0.652790  0.845525  0.414961  1
  F  F30  1  0.397738  0.655677  0.086644  1
  F  F31  1  0.650961  0.658873  0.598601  1
  F  F32  1  0.350080  0.342609  0.402032  1
  F  F33  1  0.607159  0.347145  0.914434  1
  F  F34  1  0.349723  0.156742  0.587276  1
  F  F35  1  0.868831  0.853100  0.910532  1
  F  F36  1  0.238625  0.600142  0.334298  1
  F  F37  1  0.300992  0.898541  0.165245  1
  F  F38  1  0.045887  0.410719  0.147522  1
  F  F39  1  0.245324  0.089403  0.845263  1
  F  F40  1  0.305017  0.413492  0.654872  1
  F  F41  1  0.486277  0.598683  0.840699  1
  F  F42  1  0.510715  0.909313  0.647343  1
  F  F43  1  0.138757  0.336370  0.901206  1
  F  F44  1  0.395780  0.843143  0.902388  1
  F  F45  1  0.102766  0.647523  0.588449  1
  F  F46  1  0.097877  0.837317  0.401205  1
  F  F47  1  0.050571  0.903968  0.658857  1
