# generated using pymatgen
data_Sb11S18
_symmetry_space_group_name_H-M   'P 1'
_cell_length_a   7.73274482
_cell_length_b   6.86175361
_cell_length_c   15.46328155
_cell_angle_alpha   90.59749106
_cell_angle_beta   75.23441723
_cell_angle_gamma   73.48922269
_symmetry_Int_Tables_number   1
_chemical_formula_structural   Sb11S18
_chemical_formula_sum   'Sb11 S18'
_cell_volume   757.63096627
_cell_formula_units_Z   1
loop_
 _symmetry_equiv_pos_site_id
 _symmetry_equiv_pos_as_xyz
  1  'x, y, z'
loop_
 _atom_site_type_symbol
 _atom_site_label
 _atom_site_symmetry_multiplicity
 _atom_site_fract_x
 _atom_site_fract_y
 _atom_site_fract_z
 _atom_site_occupancy
  Sb  Sb0  1  0.137845  0.284757  0.077698  1
  Sb  Sb1  1  0.063398  0.146997  0.803401  1
  Sb  Sb2  1  0.186358  0.525157  0.390007  1
  Sb  Sb3  1  0.319805  0.483377  0.613779  1
  Sb  Sb4  1  0.638434  0.282627  0.079247  1
  Sb  Sb5  1  0.359023  0.714932  0.932224  1
  Sb  Sb6  1  0.559377  0.152421  0.806843  1
  Sb  Sb7  1  0.665011  0.522932  0.391056  1
  Sb  Sb8  1  0.819893  0.493808  0.606937  1
  Sb  Sb9  1  0.926619  0.888182  0.198732  1
  Sb  Sb10  1  0.850743  0.721617  0.935507  1
  S  S11  1  0.000090  0.984862  0.997373  1
  S  S12  1  0.091940  0.140255  0.225865  1
  S  S13  1  0.298608  0.533717  0.123461  1
  S  S14  1  0.132513  0.198064  0.641408  1
  S  S15  1  0.047393  0.717789  0.539537  1
  S  S16  1  0.513482  0.977756  0.994848  1
  S  S17  1  0.605433  0.141677  0.227238  1
  S  S18  1  0.449203  0.286064  0.461749  1
  S  S19  1  0.392807  0.754732  0.343509  1
  S  S20  1  0.210852  0.442167  0.872023  1
  S  S21  1  0.805904  0.548532  0.112252  1
  S  S22  1  0.622964  0.200287  0.643533  1
  S  S23  1  0.551102  0.717763  0.540374  1
  S  S24  1  0.397877  0.866835  0.778246  1
  S  S25  1  0.947785  0.279880  0.462953  1
  S  S26  1  0.869954  0.799361  0.358027  1
  S  S27  1  0.701534  0.445329  0.873636  1
  S  S28  1  0.899664  0.871165  0.776624  1
