# generated using pymatgen
data_LiCr3Ni(SO4)6
_symmetry_space_group_name_H-M   'P 1'
_cell_length_a   8.28422580
_cell_length_b   8.85890230
_cell_length_c   8.30008304
_cell_angle_alpha   117.87109773
_cell_angle_beta   60.24231261
_cell_angle_gamma   117.66229598
_symmetry_Int_Tables_number   1
_chemical_formula_structural   LiCr3Ni(SO4)6
_chemical_formula_sum   'Li1 Cr3 Ni1 S6 O24'
_cell_volume   445.55193893
_cell_formula_units_Z   1
loop_
 _symmetry_equiv_pos_site_id
 _symmetry_equiv_pos_as_xyz
  1  'x, y, z'
loop_
 _atom_site_type_symbol
 _atom_site_label
 _atom_site_symmetry_multiplicity
 _atom_site_fract_x
 _atom_site_fract_y
 _atom_site_fract_z
 _atom_site_occupancy
  Li  Li0  1  0.766528  0.373626  0.424236  1
  Cr  Cr1  1  0.353857  0.062879  0.351251  1
  Cr  Cr2  1  0.642315  0.931057  0.644832  1
  Cr  Cr3  1  0.850669  0.550425  0.853098  1
  Ni  Ni4  1  0.160042  0.456172  0.146185  1
  S  S5  1  0.037823  0.251059  0.466627  1
  S  S6  1  0.538425  0.748460  0.253519  1
  S  S7  1  0.254238  0.748032  0.955415  1
  S  S8  1  0.750748  0.251309  0.037108  1
  S  S9  1  0.460905  0.248306  0.747475  1
  S  S10  1  0.956771  0.750180  0.542356  1
  O  O11  1  0.300708  0.922683  0.105484  1
  O  O12  1  0.108005  0.918133  0.509228  1
  O  O13  1  0.003464  0.296456  0.337618  1
  O  O14  1  0.025152  0.395797  0.657818  1
  O  O15  1  0.350266  0.608205  0.286618  1
  O  O16  1  0.047373  0.706777  0.985057  1
  O  O17  1  0.516051  0.923540  0.299979  1
  O  O18  1  0.235676  0.232912  0.376632  1
  O  O19  1  0.674405  0.705436  0.047694  1
  O  O20  1  0.380883  0.769928  0.759074  1
  O  O21  1  0.629627  0.770629  0.381724  1
  O  O22  1  0.288161  0.606976  0.968956  1
  O  O23  1  0.714047  0.394792  0.025205  1
  O  O24  1  0.382986  0.233341  0.611512  1
  O  O25  1  0.620452  0.236439  0.240442  1
  O  O26  1  0.333495  0.294858  0.949597  1
  O  O27  1  0.760042  0.771206  0.631227  1
  O  O28  1  0.490539  0.077035  0.693281  1
  O  O29  1  0.952118  0.294000  0.013563  1
  O  O30  1  0.657807  0.393206  0.708888  1
  O  O31  1  0.962597  0.599048  0.357124  1
  O  O32  1  0.984801  0.708329  0.678203  1
  O  O33  1  0.891846  0.078603  0.493632  1
  O  O34  1  0.691378  0.077564  0.896441  1
