# generated using pymatgen
data_LiFeSiO4
_symmetry_space_group_name_H-M   'P 1'
_cell_length_a   10.29571608
_cell_length_b   13.47865640
_cell_length_c   5.14602764
_cell_angle_alpha   90.00000000
_cell_angle_beta   90.00000000
_cell_angle_gamma   90.00000000
_symmetry_Int_Tables_number   1
_chemical_formula_structural   LiFeSiO4
_chemical_formula_sum   'Li8 Fe8 Si8 O32'
_cell_volume   714.12670608
_cell_formula_units_Z   8
loop_
 _symmetry_equiv_pos_site_id
 _symmetry_equiv_pos_as_xyz
  1  'x, y, z'
loop_
 _atom_site_type_symbol
 _atom_site_label
 _atom_site_symmetry_multiplicity
 _atom_site_fract_x
 _atom_site_fract_y
 _atom_site_fract_z
 _atom_site_occupancy
  Li  Li0  1  0.035856  0.503150  0.910191  1
  Li  Li1  1  0.216246  0.749684  0.560190  1
  Li  Li2  1  0.283754  0.249684  0.560190  1
  Li  Li3  1  0.464144  0.003150  0.910191  1
  Li  Li4  1  0.535856  0.503150  0.089809  1
  Li  Li5  1  0.716246  0.749684  0.439810  1
  Li  Li6  1  0.783754  0.249684  0.439810  1
  Li  Li7  1  0.964144  0.003150  0.089809  1
  Fe  Fe8  1  0.040744  0.753305  0.069047  1
  Fe  Fe9  1  0.214081  0.000028  0.555326  1
  Fe  Fe10  1  0.285919  0.500028  0.555326  1
  Fe  Fe11  1  0.459256  0.253305  0.069047  1
  Fe  Fe12  1  0.540744  0.753305  0.930953  1
  Fe  Fe13  1  0.714081  0.000028  0.444674  1
  Fe  Fe14  1  0.785919  0.500028  0.444674  1
  Fe  Fe15  1  0.959256  0.253305  0.930953  1
  Si  Si16  1  0.034168  0.375425  0.426377  1
  Si  Si17  1  0.212530  0.127934  0.056265  1
  Si  Si18  1  0.287470  0.627934  0.056265  1
  Si  Si19  1  0.465832  0.875425  0.426377  1
  Si  Si20  1  0.534168  0.375425  0.573623  1
  Si  Si21  1  0.712530  0.127934  0.943735  1
  Si  Si22  1  0.787470  0.627934  0.943735  1
  Si  Si23  1  0.965832  0.875425  0.573623  1
  O  O24  1  0.991679  0.870961  0.890228  1
  O  O25  1  0.962442  0.475711  0.541902  1
  O  O26  1  0.033218  0.777939  0.433724  1
  O  O27  1  0.055025  0.135559  0.005843  1
  O  O28  1  0.190523  0.380654  0.490398  1
  O  O29  1  0.232857  0.528860  0.902593  1
  O  O30  1  0.287793  0.226958  0.943739  1
  O  O31  1  0.248076  0.119432  0.368310  1
  O  O32  1  0.251924  0.619432  0.368310  1
  O  O33  1  0.212207  0.726958  0.943739  1
  O  O34  1  0.267143  0.028860  0.902593  1
  O  O35  1  0.309477  0.880654  0.490398  1
  O  O36  1  0.444975  0.635559  0.005843  1
  O  O37  1  0.466782  0.277939  0.433724  1
  O  O38  1  0.537558  0.975711  0.541902  1
  O  O39  1  0.508321  0.370961  0.890228  1
  O  O40  1  0.491679  0.870961  0.109772  1
  O  O41  1  0.462442  0.475711  0.458098  1
  O  O42  1  0.533218  0.777939  0.566276  1
  O  O43  1  0.555025  0.135559  0.994157  1
  O  O44  1  0.690523  0.380654  0.509602  1
  O  O45  1  0.732857  0.528860  0.097407  1
  O  O46  1  0.787793  0.226958  0.056261  1
  O  O47  1  0.748076  0.119432  0.631690  1
  O  O48  1  0.751924  0.619432  0.631690  1
  O  O49  1  0.712207  0.726958  0.056261  1
  O  O50  1  0.767143  0.028860  0.097407  1
  O  O51  1  0.809477  0.880654  0.509602  1
  O  O52  1  0.944975  0.635559  0.994157  1
  O  O53  1  0.966782  0.277939  0.566276  1
  O  O54  1  0.037558  0.975711  0.458098  1
  O  O55  1  0.008321  0.370961  0.109772  1
