# generated using pymatgen
data_Li6FeNi9O20
_symmetry_space_group_name_H-M   'P 1'
_cell_length_a   7.55654973
_cell_length_b   7.62690061
_cell_length_c   6.48631725
_cell_angle_alpha   92.60887612
_cell_angle_beta   90.98041455
_cell_angle_gamma   66.30749677
_symmetry_Int_Tables_number   1
_chemical_formula_structural   Li6FeNi9O20
_chemical_formula_sum   'Li6 Fe1 Ni9 O20'
_cell_volume   341.96330291
_cell_formula_units_Z   1
loop_
 _symmetry_equiv_pos_site_id
 _symmetry_equiv_pos_as_xyz
  1  'x, y, z'
loop_
 _atom_site_type_symbol
 _atom_site_label
 _atom_site_symmetry_multiplicity
 _atom_site_fract_x
 _atom_site_fract_y
 _atom_site_fract_z
 _atom_site_occupancy
  Li  Li0  1  0.100000  0.100000  0.600000  1
  Li  Li1  1  0.100000  0.600000  0.100000  1
  Li  Li2  1  0.321228  0.297520  0.795472  1
  Li  Li3  1  0.332051  0.797315  0.299974  1
  Li  Li4  1  0.867949  0.402685  0.900026  1
  Li  Li5  1  0.878772  0.902480  0.404528  1
  Fe  Fe6  1  0.600000  0.100000  0.100000  1
  Ni  Ni7  1  0.199769  0.198115  0.202892  1
  Ni  Ni8  1  0.000231  0.001885  0.997108  1
  Ni  Ni9  1  0.197799  0.699356  0.699165  1
  Ni  Ni10  1  0.398378  0.399727  0.405671  1
  Ni  Ni11  1  0.397433  0.897615  0.899273  1
  Ni  Ni12  1  0.600000  0.600000  0.600000  1
  Ni  Ni13  1  0.802567  0.302385  0.300727  1
  Ni  Ni14  1  0.801622  0.800273  0.794329  1
  Ni  Ni15  1  0.002201  0.500644  0.500835  1
  O  O16  1  0.061130  0.057457  0.284034  1
  O  O17  1  0.138870  0.142543  0.915966  1
  O  O18  1  0.059004  0.554842  0.772966  1
  O  O19  1  0.234128  0.279106  0.489246  1
  O  O20  1  0.140996  0.645158  0.427034  1
  O  O21  1  0.345785  0.334086  0.125069  1
  O  O22  1  0.231946  0.771414  0.973595  1
  O  O23  1  0.544242  0.043727  0.833856  1
  O  O24  1  0.426574  0.478627  0.678960  1
  O  O25  1  0.341407  0.836578  0.627118  1
  O  O26  1  0.655758  0.156273  0.366144  1
  O  O27  1  0.544068  0.536086  0.334530  1
  O  O28  1  0.768378  0.230417  0.026999  1
  O  O29  1  0.431622  0.969583  0.173001  1
  O  O30  1  0.655932  0.663914  0.865470  1
  O  O31  1  0.858593  0.363422  0.572882  1
  O  O32  1  0.773426  0.721372  0.521040  1
  O  O33  1  0.968054  0.428586  0.226405  1
  O  O34  1  0.854215  0.865914  0.074931  1
  O  O35  1  0.965872  0.920894  0.710754  1
