# generated using pymatgen
data_Na3LiSbP2O9
_symmetry_space_group_name_H-M   'P 1'
_cell_length_a   7.32515620
_cell_length_b   9.49811183
_cell_length_c   12.72838055
_cell_angle_alpha   89.99998273
_cell_angle_beta   90.01321198
_cell_angle_gamma   89.99999800
_symmetry_Int_Tables_number   1
_chemical_formula_structural   Na3LiSbP2O9
_chemical_formula_sum   'Na12 Li4 Sb4 P8 O36'
_cell_volume   885.57899777
_cell_formula_units_Z   4
loop_
 _symmetry_equiv_pos_site_id
 _symmetry_equiv_pos_as_xyz
  1  'x, y, z'
loop_
 _atom_site_type_symbol
 _atom_site_label
 _atom_site_symmetry_multiplicity
 _atom_site_fract_x
 _atom_site_fract_y
 _atom_site_fract_z
 _atom_site_occupancy
  Na  Na0  1  0.857549  0.607781  0.850678  1
  Na  Na1  1  0.843080  0.742049  0.233906  1
  Na  Na2  1  0.764989  0.085239  0.498631  1
  Na  Na3  1  0.735051  0.914898  0.998610  1
  Na  Na4  1  0.656880  0.258144  0.733914  1
  Na  Na5  1  0.642439  0.392431  0.350658  1
  Na  Na6  1  0.357561  0.892431  0.149341  1
  Na  Na7  1  0.343120  0.758144  0.766086  1
  Na  Na8  1  0.264947  0.414897  0.501390  1
  Na  Na9  1  0.235011  0.585239  0.001369  1
  Na  Na10  1  0.156920  0.242049  0.266094  1
  Na  Na11  1  0.142451  0.107781  0.649322  1
  Li  Li12  1  0.903713  0.057616  0.834855  1
  Li  Li13  1  0.596375  0.942654  0.334915  1
  Li  Li14  1  0.403623  0.442656  0.165086  1
  Li  Li15  1  0.096294  0.557620  0.665145  1
  Sb  Sb16  1  0.982529  0.253907  0.003891  1
  Sb  Sb17  1  0.517467  0.746099  0.503831  1
  Sb  Sb18  1  0.482533  0.246099  0.996169  1
  Sb  Sb19  1  0.017471  0.753907  0.496109  1
  P  P20  1  0.779435  0.873715  0.709403  1
  P  P21  1  0.767284  0.459893  0.579099  1
  P  P22  1  0.732828  0.540092  0.079088  1
  P  P23  1  0.720682  0.126151  0.209402  1
  P  P24  1  0.279318  0.626152  0.290598  1
  P  P25  1  0.267172  0.040093  0.420912  1
  P  P26  1  0.232717  0.959893  0.920902  1
  P  P27  1  0.220564  0.373715  0.790597  1
  O  O28  1  0.942640  0.785255  0.661222  1
  O  O29  1  0.950443  0.527097  0.533894  1
  O  O30  1  0.905050  0.181082  0.160857  1
  O  O31  1  0.896880  0.470645  0.013641  1
  O  O32  1  0.811420  0.032694  0.686024  1
  O  O33  1  0.763377  0.810735  0.439019  1
  O  O34  1  0.757898  0.304153  0.552187  1
  O  O35  1  0.775873  0.850217  0.828032  1
  O  O36  1  0.743684  0.510903  0.196992  1
  O  O37  1  0.756288  0.489146  0.697017  1
  O  O38  1  0.723912  0.149672  0.328044  1
  O  O39  1  0.741901  0.695879  0.052141  1
  O  O40  1  0.735737  0.189164  0.939035  1
  O  O41  1  0.688548  0.967189  0.186030  1
  O  O42  1  0.603090  0.529554  0.513628  1
  O  O43  1  0.594944  0.818730  0.660666  1
  O  O44  1  0.549594  0.472620  0.033839  1
  O  O45  1  0.557376  0.214592  0.161032  1
  O  O46  1  0.442624  0.714592  0.338968  1
  O  O47  1  0.450407  0.972620  0.466161  1
  O  O48  1  0.405056  0.318730  0.839335  1
  O  O49  1  0.396910  0.029554  0.986372  1
  O  O50  1  0.311452  0.467189  0.313970  1
  O  O51  1  0.264265  0.689164  0.560966  1
  O  O52  1  0.258099  0.195878  0.447859  1
  O  O53  1  0.276088  0.649672  0.171957  1
  O  O54  1  0.243711  0.989146  0.802983  1
  O  O55  1  0.256317  0.010903  0.303008  1
  O  O56  1  0.224127  0.350218  0.671968  1
  O  O57  1  0.242102  0.804153  0.947813  1
  O  O58  1  0.236622  0.310735  0.060981  1
  O  O59  1  0.188580  0.532695  0.813976  1
  O  O60  1  0.103120  0.970645  0.486359  1
  O  O61  1  0.094950  0.681082  0.339143  1
  O  O62  1  0.049557  0.027097  0.966106  1
  O  O63  1  0.057360  0.285255  0.838778  1
