# generated using pymatgen
data_Li2CrNiO4
_symmetry_space_group_name_H-M   'P 1'
_cell_length_a   5.86568829
_cell_length_b   5.86568857
_cell_length_c   5.84835743
_cell_angle_alpha   120.29898275
_cell_angle_beta   120.29897784
_cell_angle_gamma   89.84192772
_symmetry_Int_Tables_number   1
_chemical_formula_structural   Li2CrNiO4
_chemical_formula_sum   'Li4 Cr2 Ni2 O8'
_cell_volume   141.18896181
_cell_formula_units_Z   2
loop_
 _symmetry_equiv_pos_site_id
 _symmetry_equiv_pos_as_xyz
  1  'x, y, z'
loop_
 _atom_site_type_symbol
 _atom_site_label
 _atom_site_symmetry_multiplicity
 _atom_site_fract_x
 _atom_site_fract_y
 _atom_site_fract_z
 _atom_site_occupancy
  Li  Li0  1  0.000000  0.500000  0.500000  1
  Li  Li1  1  0.500000  0.500000  0.500000  1
  Li  Li2  1  0.500000  0.000000  0.000000  1
  Li  Li3  1  0.500000  0.500000  0.000000  1
  Cr  Cr4  1  0.000000  0.000000  0.500000  1
  Cr  Cr5  1  0.000000  0.000000  0.000000  1
  Ni  Ni6  1  0.000000  0.500000  0.000000  1
  Ni  Ni7  1  0.500000  0.000000  0.500000  1
  O  O8  1  0.236065  0.761006  0.014371  1
  O  O9  1  0.230288  0.232014  0.484456  1
  O  O10  1  0.238994  0.763935  0.485629  1
  O  O11  1  0.767986  0.769712  0.015544  1
  O  O12  1  0.232014  0.230288  0.984456  1
  O  O13  1  0.761006  0.236065  0.514371  1
  O  O14  1  0.769712  0.767986  0.515544  1
  O  O15  1  0.763935  0.238994  0.985629  1
