# generated using pymatgen
data_Li2V2F7
_symmetry_space_group_name_H-M   'P 1'
_cell_length_a   8.81888111
_cell_length_b   6.87357955
_cell_length_c   5.50926006
_cell_angle_alpha   97.99775719
_cell_angle_beta   73.41941004
_cell_angle_gamma   108.16265821
_symmetry_Int_Tables_number   1
_chemical_formula_structural   Li2V2F7
_chemical_formula_sum   'Li4 V4 F14'
_cell_volume   303.66076786
_cell_formula_units_Z   2
loop_
 _symmetry_equiv_pos_site_id
 _symmetry_equiv_pos_as_xyz
  1  'x, y, z'
loop_
 _atom_site_type_symbol
 _atom_site_label
 _atom_site_symmetry_multiplicity
 _atom_site_fract_x
 _atom_site_fract_y
 _atom_site_fract_z
 _atom_site_occupancy
  Li  Li0  1  0.267029  0.572154  0.120828  1
  Li  Li1  1  0.342021  0.745130  0.578857  1
  Li  Li2  1  0.657979  0.254870  0.421143  1
  Li  Li3  1  0.732971  0.427846  0.879172  1
  V  V4  1  0.176550  0.996032  0.297176  1
  V  V5  1  0.300489  0.216506  0.782987  1
  V  V6  1  0.699511  0.783494  0.217013  1
  V  V7  1  0.823450  0.003968  0.702824  1
  F  F8  1  0.173446  0.721377  0.399251  1
  F  F9  1  0.202049  0.276457  0.150700  1
  F  F10  1  0.082866  0.101335  0.687944  1
  F  F11  1  0.271748  0.937843  0.894768  1
  F  F12  1  0.301551  0.498173  0.750235  1
  F  F13  1  0.475470  0.686038  0.196022  1
  F  F14  1  0.396080  0.127834  0.422721  1
  F  F15  1  0.603920  0.872166  0.577279  1
  F  F16  1  0.524530  0.313962  0.803978  1
  F  F17  1  0.698449  0.501827  0.249765  1
  F  F18  1  0.728252  0.062157  0.105232  1
  F  F19  1  0.917134  0.898665  0.312056  1
  F  F20  1  0.797951  0.723543  0.849300  1
  F  F21  1  0.826554  0.278623  0.600749  1
