# generated using pymatgen
data_LiMg(Fe5O8)2
_symmetry_space_group_name_H-M   'P 1'
_cell_length_a   5.96731753
_cell_length_b   5.96731753
_cell_length_c   11.78930254
_cell_angle_alpha   59.78799922
_cell_angle_beta   59.78799922
_cell_angle_gamma   60.18920440
_symmetry_Int_Tables_number   1
_chemical_formula_structural   LiMg(Fe5O8)2
_chemical_formula_sum   'Li1 Mg1 Fe10 O16'
_cell_volume   296.30940210
_cell_formula_units_Z   1
loop_
 _symmetry_equiv_pos_site_id
 _symmetry_equiv_pos_as_xyz
  1  'x, y, z'
loop_
 _atom_site_type_symbol
 _atom_site_label
 _atom_site_symmetry_multiplicity
 _atom_site_fract_x
 _atom_site_fract_y
 _atom_site_fract_z
 _atom_site_occupancy
  Li  Li0  1  0.497061  0.497061  0.502464  1
  Mg  Mg1  1  0.124568  0.124568  0.062143  1
  Fe  Fe2  1  0.502518  0.502518  -0.002705  1
  Fe  Fe3  1  0.500243  0.500243  0.251320  1
  Fe  Fe4  1  0.997837  0.499878  0.251567  1
  Fe  Fe5  1  0.115348  0.115348  0.575826  1
  Fe  Fe6  1  0.499878  0.997837  0.251567  1
  Fe  Fe7  1  0.877520  0.877520  0.435260  1
  Fe  Fe8  1  0.000141  0.500859  0.749080  1
  Fe  Fe9  1  0.500332  0.500332  0.748516  1
  Fe  Fe10  1  0.500859  0.000141  0.749080  1
  Fe  Fe11  1  0.886564  0.886564  0.926084  1
  O  O12  1  0.266769  0.266769  0.125566  1
  O  O13  1  0.715774  0.266888  0.125347  1
  O  O14  1  0.252781  0.252781  0.370821  1
  O  O15  1  0.266888  0.715774  0.125347  1
  O  O16  1  0.752553  0.265075  0.365148  1
  O  O17  1  0.739213  0.739213  0.140811  1
  O  O18  1  0.265075  0.752553  0.365148  1
  O  O19  1  0.752532  0.752532  0.365685  1
  O  O20  1  0.245458  0.245458  0.642247  1
  O  O21  1  0.722330  0.245934  0.641048  1
  O  O22  1  0.263374  0.263374  0.853747  1
  O  O23  1  0.245934  0.722330  0.641048  1
  O  O24  1  0.740165  0.740165  0.639735  1
  O  O25  1  0.736867  0.296123  0.865880  1
  O  O26  1  0.735294  0.735294  0.866340  1
  O  O27  1  0.296123  0.736867  0.865880  1
