# generated using pymatgen
data_LiVCo3(PO4)6
_symmetry_space_group_name_H-M   'P 1'
_cell_length_a   8.64964973
_cell_length_b   8.64964973
_cell_length_c   8.64964928
_cell_angle_alpha   59.26092212
_cell_angle_beta   59.26091762
_cell_angle_gamma   59.26091522
_symmetry_Int_Tables_number   1
_chemical_formula_structural   LiVCo3(PO4)6
_chemical_formula_sum   'Li1 V1 Co3 P6 O24'
_cell_volume   449.89160527
_cell_formula_units_Z   1
loop_
 _symmetry_equiv_pos_site_id
 _symmetry_equiv_pos_as_xyz
  1  'x, y, z'
loop_
 _atom_site_type_symbol
 _atom_site_label
 _atom_site_symmetry_multiplicity
 _atom_site_fract_x
 _atom_site_fract_y
 _atom_site_fract_z
 _atom_site_occupancy
  Li  Li0  1  0.011808  0.011808  0.011808  1
  V  V1  1  0.856987  0.856987  0.856987  1
  Co  Co2  1  0.143886  0.143886  0.143886  1
  Co  Co3  1  0.362542  0.362542  0.362542  1
  Co  Co4  1  0.636684  0.636684  0.636684  1
  P  P5  1  0.033692  0.755467  0.458388  1
  P  P6  1  0.458388  0.033692  0.755467  1
  P  P7  1  0.755467  0.458388  0.033692  1
  P  P8  1  0.244627  0.534328  0.970575  1
  P  P9  1  0.534328  0.970575  0.244627  1
  P  P10  1  0.970575  0.244627  0.534328  1
  O  O11  1  0.142875  0.271053  0.514628  1
  O  O12  1  0.271053  0.514628  0.142875  1
  O  O13  1  0.064304  0.922962  0.265498  1
  O  O14  1  0.514628  0.142875  0.271053  1
  O  O15  1  0.217034  0.578518  0.453508  1
  O  O16  1  0.991341  0.807628  0.627713  1
  O  O17  1  0.265498  0.064304  0.922962  1
  O  O18  1  0.453508  0.217034  0.578518  1
  O  O19  1  0.578518  0.453508  0.217034  1
  O  O20  1  0.203924  0.369411  0.993277  1
  O  O21  1  0.075884  0.728407  0.933766  1
  O  O22  1  0.369411  0.993277  0.203924  1
  O  O23  1  0.627713  0.991341  0.807628  1
  O  O24  1  0.922962  0.265498  0.064304  1
  O  O25  1  0.807628  0.627713  0.991341  1
  O  O26  1  0.415567  0.558552  0.784727  1
  O  O27  1  0.558552  0.784727  0.415567  1
  O  O28  1  0.728407  0.933766  0.075884  1
  O  O29  1  0.993277  0.203924  0.369411  1
  O  O30  1  0.784727  0.415567  0.558552  1
  O  O31  1  0.486157  0.865782  0.718499  1
  O  O32  1  0.933766  0.075884  0.728407  1
  O  O33  1  0.718499  0.486157  0.865782  1
  O  O34  1  0.865782  0.718499  0.486157  1
