# generated using pymatgen
data_LiTi2VO6
_symmetry_space_group_name_H-M   'P 1'
_cell_length_a   2.99854404
_cell_length_b   6.59169940
_cell_length_c   6.02016854
_cell_angle_alpha   102.41800642
_cell_angle_beta   90.02033547
_cell_angle_gamma   103.12986775
_symmetry_Int_Tables_number   1
_chemical_formula_structural   LiTi2VO6
_chemical_formula_sum   'Li1 Ti2 V1 O6'
_cell_volume   113.01831484
_cell_formula_units_Z   1
loop_
 _symmetry_equiv_pos_site_id
 _symmetry_equiv_pos_as_xyz
  1  'x, y, z'
loop_
 _atom_site_type_symbol
 _atom_site_label
 _atom_site_symmetry_multiplicity
 _atom_site_fract_x
 _atom_site_fract_y
 _atom_site_fract_z
 _atom_site_occupancy
  Li  Li0  1  0.333413  0.666778  0.166744  1
  Ti  Ti1  1  0.014159  0.028635  0.968428  1
  Ti  Ti2  1  0.652188  0.304726  0.364862  1
  V  V3  1  0.333550  0.666591  0.666639  1
  O  O4  1  0.814529  0.629404  0.430796  1
  O  O5  1  0.160526  0.321179  0.128719  1
  O  O6  1  0.852140  0.703931  0.902639  1
  O  O7  1  0.166129  0.332141  0.565726  1
  O  O8  1  0.506331  0.012185  0.204551  1
  O  O9  1  0.500369  0.001098  0.767562  1
