# generated using pymatgen
data_Li5V6O5F19
_symmetry_space_group_name_H-M   'P 1'
_cell_length_a   5.16090963
_cell_length_b   5.35601136
_cell_length_c   16.73200619
_cell_angle_alpha   80.38904008
_cell_angle_beta   90.22095132
_cell_angle_gamma   89.70172588
_symmetry_Int_Tables_number   1
_chemical_formula_structural   Li5V6O5F19
_chemical_formula_sum   'Li5 V6 O5 F19'
_cell_volume   456.00121251
_cell_formula_units_Z   1
loop_
 _symmetry_equiv_pos_site_id
 _symmetry_equiv_pos_as_xyz
  1  'x, y, z'
loop_
 _atom_site_type_symbol
 _atom_site_label
 _atom_site_symmetry_multiplicity
 _atom_site_fract_x
 _atom_site_fract_y
 _atom_site_fract_z
 _atom_site_occupancy
  Li  Li0  1  0.207271  0.866131  0.844841  1
  Li  Li1  1  0.954559  0.993591  0.215509  1
  Li  Li2  1  0.545216  0.827705  0.548578  1
  Li  Li3  1  0.542982  0.494404  0.215121  1
  Li  Li4  1  0.955991  0.325483  0.548788  1
  V  V5  1  0.479075  0.860015  0.337892  1
  V  V6  1  0.021174  0.694623  0.669222  1
  V  V7  1  0.498514  0.499298  0.001811  1
  V  V8  1  0.022543  0.360271  0.337900  1
  V  V9  1  0.479615  0.193911  0.670107  1
  V  V10  1  0.025462  0.979857  0.002273  1
  O  O11  1  0.193877  0.968410  0.640648  1
  O  O12  1  0.284989  0.794787  0.983173  1
  O  O13  1  0.196646  0.631775  0.309002  1
  O  O14  1  0.305396  0.466377  0.641936  1
  O  O15  1  0.305036  0.132906  0.307981  1
  F  F16  1  0.687930  0.846451  0.690999  1
  F  F17  1  0.081078  0.968414  0.114547  1
  F  F18  1  0.408732  0.787055  0.448095  1
  F  F19  1  0.094672  0.636366  0.780315  1
  F  F20  1  0.625743  0.831961  0.231137  1
  F  F21  1  0.876210  0.668487  0.562123  1
  F  F22  1  0.575599  0.551555  0.897807  1
  F  F23  1  0.195231  0.310857  0.980088  1
  F  F24  1  0.790440  0.689638  0.031778  1
  F  F25  1  0.693640  0.516361  0.361889  1
  F  F26  1  0.810789  0.349853  0.692568  1
  F  F27  1  0.420208  0.443637  0.110679  1
  F  F28  1  0.091536  0.283059  0.448366  1
  F  F29  1  0.409441  0.106899  0.780597  1
  F  F30  1  0.873109  0.336265  0.230843  1
  F  F31  1  0.624964  0.169534  0.563384  1
  F  F32  1  0.924200  0.027112  0.893724  1
  F  F33  1  0.707160  0.190322  0.020411  1
  F  F34  1  0.808394  0.016671  0.360370  1
