# generated using pymatgen
data_Li4Fe3(OF3)2
_symmetry_space_group_name_H-M   'P 1'
_cell_length_a   5.31404676
_cell_length_b   6.08996097
_cell_length_c   5.29769333
_cell_angle_alpha   88.73062717
_cell_angle_beta   79.07725849
_cell_angle_gamma   73.18734429
_symmetry_Int_Tables_number   1
_chemical_formula_structural   Li4Fe3(OF3)2
_chemical_formula_sum   'Li4 Fe3 O2 F6'
_cell_volume   161.04689921
_cell_formula_units_Z   1
loop_
 _symmetry_equiv_pos_site_id
 _symmetry_equiv_pos_as_xyz
  1  'x, y, z'
loop_
 _atom_site_type_symbol
 _atom_site_label
 _atom_site_symmetry_multiplicity
 _atom_site_fract_x
 _atom_site_fract_y
 _atom_site_fract_z
 _atom_site_occupancy
  Li  Li0  1  0.981377  0.000388  0.983087  1
  Li  Li1  1  0.001138  0.234150  0.480098  1
  Li  Li2  1  0.998862  0.515850  0.019902  1
  Li  Li3  1  0.018623  0.749612  0.516913  1
  Fe  Fe4  1  0.488477  0.116213  0.747461  1
  Fe  Fe5  1  0.511523  0.633787  0.752539  1
  Fe  Fe6  1  0.500000  0.875000  0.250000  1
  O  O7  1  0.269251  0.939950  0.602689  1
  O  O8  1  0.730749  0.810050  0.897311  1
  F  F9  1  0.207708  0.190383  0.110164  1
  F  F10  1  0.771903  0.047066  0.378935  1
  F  F11  1  0.249369  0.454227  0.661216  1
  F  F12  1  0.750631  0.295773  0.838784  1
  F  F13  1  0.228097  0.702934  0.121065  1
  F  F14  1  0.792292  0.559617  0.389836  1
