# generated using pymatgen
data_Li10Ti2Mn3Ni3O16
_symmetry_space_group_name_H-M   'P 1'
_cell_length_a   5.97946601
_cell_length_b   6.01345180
_cell_length_c   9.86074410
_cell_angle_alpha   88.41983257
_cell_angle_beta   90.36066843
_cell_angle_gamma   120.50055044
_symmetry_Int_Tables_number   1
_chemical_formula_structural   Li10Ti2Mn3Ni3O16
_chemical_formula_sum   'Li10 Ti2 Mn3 Ni3 O16'
_cell_volume   305.37347366
_cell_formula_units_Z   1
loop_
 _symmetry_equiv_pos_site_id
 _symmetry_equiv_pos_as_xyz
  1  'x, y, z'
loop_
 _atom_site_type_symbol
 _atom_site_label
 _atom_site_symmetry_multiplicity
 _atom_site_fract_x
 _atom_site_fract_y
 _atom_site_fract_z
 _atom_site_occupancy
  Li  Li0  1  0.999472  0.995903  0.528869  1
  Li  Li1  1  0.382487  0.181040  0.954438  1
  Li  Li2  1  0.189448  0.385845  0.458278  1
  Li  Li3  1  0.807946  0.193914  0.956440  1
  Li  Li4  1  0.674782  0.342742  0.746782  1
  Li  Li5  1  0.337700  0.672409  0.246186  1
  Li  Li6  1  0.208742  0.805831  0.469746  1
  Li  Li7  1  0.797104  0.598048  0.964681  1
  Li  Li8  1  0.610782  0.801100  0.463794  1
  Li  Li9  1  0.990800  0.991272  0.027309  1
  Ti  Ti10  1  0.328462  0.675283  0.982030  1
  Ti  Ti11  1  0.673975  0.353149  0.485783  1
  Mn  Mn12  1  0.169496  0.342019  0.726427  1
  Mn  Mn13  1  0.334435  0.168502  0.227559  1
  Mn  Mn14  1  0.830858  0.175846  0.227144  1
  Ni  Ni15  1  0.171267  0.833085  0.727745  1
  Ni  Ni16  1  0.663890  0.833111  0.728790  1
  Ni  Ni17  1  0.829678  0.661720  0.226749  1
  O  O18  1  0.010500  0.017936  0.833549  1
  O  O19  1  0.982119  0.007466  0.335218  1
  O  O20  1  0.349571  0.162943  0.589227  1
  O  O21  1  0.015704  0.513735  0.857125  1
  O  O22  1  0.143100  0.329948  0.098129  1
  O  O23  1  0.526898  0.022677  0.355301  1
  O  O24  1  0.478396  0.500088  0.853576  1
  O  O25  1  0.331405  0.655628  0.613200  1
  O  O26  1  0.516686  0.495322  0.361535  1
  O  O27  1  0.846650  0.180937  0.599337  1
  O  O28  1  0.673742  0.325154  0.108971  1
  O  O29  1  0.166981  0.819129  0.089286  1
  O  O30  1  0.490685  0.977500  0.855487  1
  O  O31  1  0.987719  0.506671  0.359658  1
  O  O32  1  0.827518  0.652387  0.597387  1
  O  O33  1  0.641924  0.803870  0.090341  1
