# generated using pymatgen
data_Li2Mn2(SO4)3
_symmetry_space_group_name_H-M   'P 1'
_cell_length_a   12.60576608
_cell_length_b   8.77032872
_cell_length_c   9.02385036
_cell_angle_alpha   90.00000000
_cell_angle_beta   90.00000000
_cell_angle_gamma   90.00000000
_symmetry_Int_Tables_number   1
_chemical_formula_structural   Li2Mn2(SO4)3
_chemical_formula_sum   'Li8 Mn8 S12 O48'
_cell_volume   997.64722799
_cell_formula_units_Z   4
loop_
 _symmetry_equiv_pos_site_id
 _symmetry_equiv_pos_as_xyz
  1  'x, y, z'
loop_
 _atom_site_type_symbol
 _atom_site_label
 _atom_site_symmetry_multiplicity
 _atom_site_fract_x
 _atom_site_fract_y
 _atom_site_fract_z
 _atom_site_occupancy
  Li  Li0  1  0.181218  0.215927  0.277744  1
  Li  Li1  1  0.181218  0.784073  0.777744  1
  Li  Li2  1  0.318782  0.284073  0.777744  1
  Li  Li3  1  0.318782  0.715927  0.277744  1
  Li  Li4  1  0.681218  0.284073  0.722256  1
  Li  Li5  1  0.681218  0.715927  0.222256  1
  Li  Li6  1  0.818782  0.215927  0.222256  1
  Li  Li7  1  0.818782  0.784073  0.722256  1
  Mn  Mn8  1  0.109238  0.252468  0.958943  1
  Mn  Mn9  1  0.109238  0.747532  0.458943  1
  Mn  Mn10  1  0.390762  0.752468  0.958943  1
  Mn  Mn11  1  0.390762  0.247532  0.458943  1
  Mn  Mn12  1  0.609238  0.247532  0.041057  1
  Mn  Mn13  1  0.609238  0.752468  0.541057  1
  Mn  Mn14  1  0.890762  0.252468  0.541057  1
  Mn  Mn15  1  0.890762  0.747532  0.041057  1
  S  S16  1  0.000000  0.452677  0.250000  1
  S  S17  1  0.000000  0.547323  0.750000  1
  S  S18  1  0.147519  0.102360  0.605715  1
  S  S19  1  0.147519  0.897640  0.105715  1
  S  S20  1  0.352481  0.397640  0.105715  1
  S  S21  1  0.352481  0.602360  0.605715  1
  S  S22  1  0.500000  0.047323  0.750000  1
  S  S23  1  0.500000  0.952677  0.250000  1
  S  S24  1  0.647519  0.397640  0.394285  1
  S  S25  1  0.647519  0.602360  0.894285  1
  S  S26  1  0.852481  0.102360  0.894285  1
  S  S27  1  0.852481  0.897640  0.394285  1
  O  O28  1  0.035462  0.136055  0.578610  1
  O  O29  1  0.035462  0.863945  0.078610  1
  O  O30  1  0.055070  0.544721  0.361898  1
  O  O31  1  0.055070  0.455279  0.861898  1
  O  O32  1  0.080209  0.351233  0.176759  1
  O  O33  1  0.080209  0.648767  0.676759  1
  O  O34  1  0.163005  0.066705  0.114328  1
  O  O35  1  0.163005  0.933295  0.614328  1
  O  O36  1  0.183497  0.171657  0.749009  1
  O  O37  1  0.183497  0.828343  0.249009  1
  O  O38  1  0.214441  0.835383  0.982635  1
  O  O39  1  0.214441  0.164617  0.482635  1
  O  O40  1  0.285559  0.335383  0.982635  1
  O  O41  1  0.285559  0.664617  0.482635  1
  O  O42  1  0.316503  0.671657  0.749009  1
  O  O43  1  0.316503  0.328343  0.249009  1
  O  O44  1  0.336995  0.433295  0.614328  1
  O  O45  1  0.336995  0.566705  0.114328  1
  O  O46  1  0.419791  0.148767  0.676759  1
  O  O47  1  0.419791  0.851233  0.176759  1
  O  O48  1  0.444930  0.044721  0.361898  1
  O  O49  1  0.444930  0.955279  0.861898  1
  O  O50  1  0.464538  0.636055  0.578610  1
  O  O51  1  0.464538  0.363945  0.078610  1
  O  O52  1  0.535462  0.363945  0.421390  1
  O  O53  1  0.535462  0.636055  0.921390  1
  O  O54  1  0.555070  0.044721  0.138102  1
  O  O55  1  0.555070  0.955279  0.638102  1
  O  O56  1  0.580209  0.148767  0.823241  1
  O  O57  1  0.580209  0.851233  0.323241  1
  O  O58  1  0.663005  0.433295  0.885672  1
  O  O59  1  0.663005  0.566705  0.385672  1
  O  O60  1  0.683497  0.328343  0.250991  1
  O  O61  1  0.683497  0.671657  0.750991  1
  O  O62  1  0.714441  0.335383  0.517365  1
  O  O63  1  0.714441  0.664617  0.017365  1
  O  O64  1  0.785559  0.164617  0.017365  1
  O  O65  1  0.785559  0.835383  0.517365  1
  O  O66  1  0.816503  0.171657  0.750991  1
  O  O67  1  0.816503  0.828343  0.250991  1
  O  O68  1  0.836995  0.066705  0.385672  1
  O  O69  1  0.836995  0.933295  0.885672  1
  O  O70  1  0.919791  0.351233  0.323241  1
  O  O71  1  0.919791  0.648767  0.823241  1
  O  O72  1  0.944930  0.455279  0.638102  1
  O  O73  1  0.944930  0.544721  0.138102  1
  O  O74  1  0.964538  0.136055  0.921390  1
  O  O75  1  0.964538  0.863945  0.421390  1
