# generated using pymatgen
data_Li2CoSiO4
_symmetry_space_group_name_H-M   'P 1'
_cell_length_a   5.31492935
_cell_length_b   5.31490546
_cell_length_c   6.28495746
_cell_angle_alpha   89.45377191
_cell_angle_beta   90.54671885
_cell_angle_gamma   87.46820330
_symmetry_Int_Tables_number   1
_chemical_formula_structural   Li2CoSiO4
_chemical_formula_sum   'Li4 Co2 Si2 O8'
_cell_volume   177.34947515
_cell_formula_units_Z   2
loop_
 _symmetry_equiv_pos_site_id
 _symmetry_equiv_pos_as_xyz
  1  'x, y, z'
loop_
 _atom_site_type_symbol
 _atom_site_label
 _atom_site_symmetry_multiplicity
 _atom_site_fract_x
 _atom_site_fract_y
 _atom_site_fract_z
 _atom_site_occupancy
  Li  Li0  1  0.176111  0.176110  0.500000  1
  Li  Li1  1  0.318014  0.682378  0.739773  1
  Li  Li2  1  0.682377  0.318013  0.260225  1
  Li  Li3  1  0.824259  0.824259  0.500000  1
  Co  Co4  1  0.811029  0.811039  0.000001  1
  Co  Co5  1  0.189136  0.189127  0.999998  1
  Si  Si6  1  0.321788  0.678324  0.256836  1
  Si  Si7  1  0.678328  0.321792  0.743162  1
  O  O8  1  0.193741  0.806539  0.032286  1
  O  O9  1  0.196230  0.804306  0.465378  1
  O  O10  1  0.291294  0.369104  0.249704  1
  O  O11  1  0.369111  0.291287  0.750297  1
  O  O12  1  0.631231  0.707719  0.249546  1
  O  O13  1  0.707712  0.631236  0.750453  1
  O  O14  1  0.804307  0.196233  0.534619  1
  O  O15  1  0.806546  0.193748  0.967712  1
