# generated using pymatgen
data_LiVPHO5
_symmetry_space_group_name_H-M   'P 1'
_cell_length_a   5.45818226
_cell_length_b   7.44448615
_cell_length_c   5.16651444
_cell_angle_alpha   108.35995338
_cell_angle_beta   98.37990549
_cell_angle_gamma   106.55222115
_symmetry_Int_Tables_number   1
_chemical_formula_structural   LiVPHO5
_chemical_formula_sum   'Li2 V2 P2 H2 O10'
_cell_volume   184.48160666
_cell_formula_units_Z   2
loop_
 _symmetry_equiv_pos_site_id
 _symmetry_equiv_pos_as_xyz
  1  'x, y, z'
loop_
 _atom_site_type_symbol
 _atom_site_label
 _atom_site_symmetry_multiplicity
 _atom_site_fract_x
 _atom_site_fract_y
 _atom_site_fract_z
 _atom_site_occupancy
  Li  Li0  1  0.395818  0.822010  0.745512  1
  Li  Li1  1  0.604182  0.177989  0.254488  1
  V  V2  1  0.000000  0.500000  0.000000  1
  V  V3  1  0.000000  0.000000  0.000000  1
  P  P4  1  0.360954  0.232600  0.676445  1
  P  P5  1  0.639046  0.767400  0.323555  1
  H  H6  1  0.057956  0.340266  0.361652  1
  H  H7  1  0.942044  0.659734  0.638348  1
  O  O8  1  0.049078  0.721999  0.837562  1
  O  O9  1  0.205908  0.378894  0.725011  1
  O  O10  1  0.345525  0.660587  0.307347  1
  O  O11  1  0.250014  0.071453  0.367989  1
  O  O12  1  0.339252  0.118735  0.884282  1
  O  O13  1  0.660748  0.881265  0.115718  1
  O  O14  1  0.749986  0.928547  0.632011  1
  O  O15  1  0.654475  0.339413  0.692653  1
  O  O16  1  0.794092  0.621106  0.274989  1
  O  O17  1  0.950922  0.278001  0.162438  1
