# generated using pymatgen
data_Li2Cr3FeO8
_symmetry_space_group_name_H-M   'P 1'
_cell_length_a   5.89004460
_cell_length_b   5.89004492
_cell_length_c   5.89004450
_cell_angle_alpha   60.21856988
_cell_angle_beta   60.21856562
_cell_angle_gamma   60.21857320
_symmetry_Int_Tables_number   1
_chemical_formula_structural   Li2Cr3FeO8
_chemical_formula_sum   'Li2 Cr3 Fe1 O8'
_cell_volume   145.20602513
_cell_formula_units_Z   1
loop_
 _symmetry_equiv_pos_site_id
 _symmetry_equiv_pos_as_xyz
  1  'x, y, z'
loop_
 _atom_site_type_symbol
 _atom_site_label
 _atom_site_symmetry_multiplicity
 _atom_site_fract_x
 _atom_site_fract_y
 _atom_site_fract_z
 _atom_site_occupancy
  Li  Li0  1  0.124442  0.124442  0.124442  1
  Li  Li1  1  0.500237  0.500237  0.500237  1
  Cr  Cr2  1  0.011217  0.497548  0.497548  1
  Cr  Cr3  1  0.497548  0.011217  0.497548  1
  Cr  Cr4  1  0.497548  0.497548  0.011217  1
  Fe  Fe5  1  0.880593  0.880593  0.880593  1
  O  O6  1  0.260665  0.260665  0.260665  1
  O  O7  1  0.248567  0.248567  0.713767  1
  O  O8  1  0.248567  0.713767  0.248567  1
  O  O9  1  0.713767  0.248567  0.248567  1
  O  O10  1  0.276121  0.748302  0.748302  1
  O  O11  1  0.748302  0.276121  0.748302  1
  O  O12  1  0.748302  0.748302  0.276121  1
  O  O13  1  0.744126  0.744126  0.744126  1
