# generated using pymatgen
data_TiVO4
_symmetry_space_group_name_H-M   'P 1'
_cell_length_a   5.53704990
_cell_length_b   5.53705036
_cell_length_c   5.53705024
_cell_angle_alpha   139.92121901
_cell_angle_beta   139.92122802
_cell_angle_gamma   57.97293011
_symmetry_Int_Tables_number   1
_chemical_formula_structural   TiVO4
_chemical_formula_sum   'Ti1 V1 O4'
_cell_volume   69.74509270
_cell_formula_units_Z   1
loop_
 _symmetry_equiv_pos_site_id
 _symmetry_equiv_pos_as_xyz
  1  'x, y, z'
loop_
 _atom_site_type_symbol
 _atom_site_label
 _atom_site_symmetry_multiplicity
 _atom_site_fract_x
 _atom_site_fract_y
 _atom_site_fract_z
 _atom_site_occupancy
  Ti  Ti0  1  0.750000  0.250000  0.500000  1
  V  V1  1  0.000000  0.000000  0.000000  1
  O  O2  1  0.541274  0.041274  0.500000  1
  O  O3  1  0.205178  0.205178  1.000000  1
  O  O4  1  0.958726  0.458726  0.500000  1
  O  O5  1  0.794822  0.794822  0.000000  1
