# generated using pymatgen
data_Li2FeNi3O8
_symmetry_space_group_name_H-M   'P 1'
_cell_length_a   5.72384130
_cell_length_b   5.90767373
_cell_length_c   5.80166602
_cell_angle_alpha   61.48489651
_cell_angle_beta   119.55724577
_cell_angle_gamma   118.97586505
_symmetry_Int_Tables_number   1
_chemical_formula_structural   Li2FeNi3O8
_chemical_formula_sum   'Li2 Fe1 Ni3 O8'
_cell_volume   141.77280913
_cell_formula_units_Z   1
loop_
 _symmetry_equiv_pos_site_id
 _symmetry_equiv_pos_as_xyz
  1  'x, y, z'
loop_
 _atom_site_type_symbol
 _atom_site_label
 _atom_site_symmetry_multiplicity
 _atom_site_fract_x
 _atom_site_fract_y
 _atom_site_fract_z
 _atom_site_occupancy
  Li  Li0  1  0.500000  0.500000  0.000000  1
  Li  Li1  1  0.000000  0.500000  0.000000  1
  Fe  Fe2  1  0.000000  0.000000  0.500000  1
  Ni  Ni3  1  0.500000  0.000000  0.500000  1
  Ni  Ni4  1  0.500000  0.000000  0.000000  1
  Ni  Ni5  1  0.000000  0.000000  0.000000  1
  O  O6  1  0.773117  0.787243  0.757503  1
  O  O7  1  0.271629  0.787243  0.757503  1
  O  O8  1  0.254609  0.798098  0.211120  1
  O  O9  1  0.752434  0.793650  0.211216  1
  O  O10  1  0.247566  0.206350  0.788784  1
  O  O11  1  0.745391  0.201902  0.788880  1
  O  O12  1  0.728371  0.212757  0.242497  1
  O  O13  1  0.226883  0.212757  0.242497  1
