# generated using pymatgen
data_LiMn3(BO3)3
_symmetry_space_group_name_H-M   'P 1'
_cell_length_a   11.80267628
_cell_length_b   5.26075541
_cell_length_c   6.17102588
_cell_angle_alpha   87.91981812
_cell_angle_beta   98.25497302
_cell_angle_gamma   102.36179820
_symmetry_Int_Tables_number   1
_chemical_formula_structural   LiMn3(BO3)3
_chemical_formula_sum   'Li2 Mn6 B6 O18'
_cell_volume   370.39744813
_cell_formula_units_Z   2
loop_
 _symmetry_equiv_pos_site_id
 _symmetry_equiv_pos_as_xyz
  1  'x, y, z'
loop_
 _atom_site_type_symbol
 _atom_site_label
 _atom_site_symmetry_multiplicity
 _atom_site_fract_x
 _atom_site_fract_y
 _atom_site_fract_z
 _atom_site_occupancy
  Li  Li0  1  0.870812  0.529073  0.798430  1
  Li  Li1  1  0.462521  0.137594  0.868237  1
  Mn  Mn2  1  0.786122  0.990036  0.958479  1
  Mn  Mn3  1  0.880050  0.347624  0.376317  1
  Mn  Mn4  1  0.547212  0.676631  0.708187  1
  Mn  Mn5  1  0.453283  0.319043  0.290350  1
  Mn  Mn6  1  0.128142  0.665357  0.621792  1
  Mn  Mn7  1  0.205191  0.001310  0.044875  1
  B  B8  1  0.663365  0.256437  0.607949  1
  B  B9  1  0.997207  0.922098  0.257285  1
  B  B10  1  0.332544  0.582382  0.906087  1
  B  B11  1  0.669968  0.410230  0.058718  1
  B  B12  1  0.000789  0.084285  0.760579  1
  B  B13  1  0.336126  0.744569  0.409381  1
  O  O14  1  0.991300  0.333717  0.695608  1
  O  O15  1  0.908482  0.897787  0.813192  1
  O  O16  1  0.676023  0.010846  0.690620  1
  O  O17  1  0.753150  0.428930  0.542137  1
  O  O18  1  0.552468  0.314398  0.616527  1
  O  O19  1  0.884364  0.976161  0.240117  1
  O  O20  1  0.342034  0.332950  0.971058  1
  O  O21  1  0.780865  0.352268  0.050140  1
  O  O22  1  0.424851  0.768880  0.853475  1
  O  O23  1  0.580183  0.237737  0.124529  1
  O  O24  1  0.226238  0.664805  0.909877  1
  O  O25  1  0.657310  0.655821  0.976047  1
  O  O26  1  0.107096  0.001862  0.756790  1
  O  O27  1  0.448970  0.690505  0.426550  1
  O  O28  1  0.248914  0.569480  0.485970  1
  O  O29  1  0.320120  0.975005  0.302528  1
  O  O30  1  0.084419  0.097187  0.180697  1
  O  O31  1  0.013214  0.691662  0.364139  1
