# generated using pymatgen
data_Li4Ti5Mn3O16
_symmetry_space_group_name_H-M   'P 1'
_cell_length_a   6.06255267
_cell_length_b   5.89419285
_cell_length_c   9.65841040
_cell_angle_alpha   89.99947528
_cell_angle_beta   91.74647827
_cell_angle_gamma   119.08533148
_symmetry_Int_Tables_number   1
_chemical_formula_structural   Li4Ti5Mn3O16
_chemical_formula_sum   'Li4 Ti5 Mn3 O16'
_cell_volume   301.42650024
_cell_formula_units_Z   1
loop_
 _symmetry_equiv_pos_site_id
 _symmetry_equiv_pos_as_xyz
  1  'x, y, z'
loop_
 _atom_site_type_symbol
 _atom_site_label
 _atom_site_symmetry_multiplicity
 _atom_site_fract_x
 _atom_site_fract_y
 _atom_site_fract_z
 _atom_site_occupancy
  Li  Li0  1  0.310783  0.655406  0.899627  1
  Li  Li1  1  0.996303  0.998165  0.991429  1
  Li  Li2  1  0.014610  0.007313  0.493693  1
  Li  Li3  1  0.670347  0.335176  0.400549  1
  Ti  Ti4  1  0.347271  0.173647  0.732899  1
  Ti  Ti5  1  0.193268  0.843419  0.221868  1
  Ti  Ti6  1  0.329478  0.664750  0.499875  1
  Ti  Ti7  1  0.193261  0.349866  0.221876  1
  Ti  Ti8  1  0.679631  0.339828  0.997505  1
  Mn  Mn9  1  0.667601  0.833812  0.207483  1
  Mn  Mn10  1  0.825961  0.659449  0.709302  1
  Mn  Mn11  1  0.825965  0.166552  0.709298  1
  O  O12  1  0.189035  0.839115  0.591162  1
  O  O13  1  0.045577  0.522791  0.337177  1
  O  O14  1  0.302055  0.651034  0.104972  1
  O  O15  1  0.020189  0.010098  0.304490  1
  O  O16  1  0.998475  0.999252  0.800394  1
  O  O17  1  0.189027  0.349936  0.591162  1
  O  O18  1  0.465379  0.963837  0.343739  1
  O  O19  1  0.465382  0.501551  0.343738  1
  O  O20  1  0.333555  0.166780  0.101869  1
  O  O21  1  0.677746  0.838884  0.588902  1
  O  O22  1  0.489235  0.463912  0.845609  1
  O  O23  1  0.489251  0.025347  0.845605  1
  O  O24  1  0.656359  0.328203  0.611223  1
  O  O25  1  0.842370  0.659880  0.086425  1
  O  O26  1  0.939520  0.469786  0.839545  1
  O  O27  1  0.842366  0.182508  0.086424  1
