# generated using pymatgen
data_V2OF5
_symmetry_space_group_name_H-M   'P 1'
_cell_length_a   8.53236893
_cell_length_b   8.56958155
_cell_length_c   4.62590079
_cell_angle_alpha   90.48521953
_cell_angle_beta   90.56913916
_cell_angle_gamma   60.02849324
_symmetry_Int_Tables_number   1
_chemical_formula_structural   V2OF5
_chemical_formula_sum   'V6 O3 F15'
_cell_volume   292.99204204
_cell_formula_units_Z   3
loop_
 _symmetry_equiv_pos_site_id
 _symmetry_equiv_pos_as_xyz
  1  'x, y, z'
loop_
 _atom_site_type_symbol
 _atom_site_label
 _atom_site_symmetry_multiplicity
 _atom_site_fract_x
 _atom_site_fract_y
 _atom_site_fract_z
 _atom_site_occupancy
  V  V0  1  0.002693  0.661187  0.993194  1
  V  V1  1  0.335766  0.992863  0.993301  1
  V  V2  1  0.341719  0.674911  0.517694  1
  V  V3  1  0.008295  0.340131  0.517747  1
  V  V4  1  0.666844  0.327476  0.007593  1
  V  V5  1  0.660790  0.015256  0.479285  1
  O  O6  1  0.417156  0.784285  0.739893  1
  O  O7  1  0.081373  0.450724  0.737166  1
  O  O8  1  0.588694  0.197304  0.261834  1
  F  F9  1  0.230616  0.880382  0.251785  1
  F  F10  1  0.117534  0.762661  0.744756  1
  F  F11  1  0.216611  0.577728  0.256649  1
  F  F12  1  0.546354  0.899724  0.252982  1
  F  F13  1  0.544107  0.550834  0.249307  1
  F  F14  1  0.449257  0.451752  0.746616  1
  F  F15  1  0.116276  0.117949  0.751152  1
  F  F16  1  0.213688  0.211858  0.249605  1
  F  F17  1  0.782624  0.798569  0.740774  1
  F  F18  1  0.881938  0.874764  0.253077  1
  F  F19  1  0.899297  0.548876  0.246158  1
  F  F20  1  0.783728  0.422822  0.744336  1
  F  F21  1  0.458673  0.095689  0.746040  1
  F  F22  1  0.885683  0.246723  0.256113  1
  F  F23  1  0.772564  0.112856  0.752681  1
