# generated using pymatgen
data_Sr2Li2Nb3O10
_symmetry_space_group_name_H-M   'P 1'
_cell_length_a   13.60919944
_cell_length_b   13.60919944
_cell_length_c   13.60884590
_cell_angle_alpha   162.94106383
_cell_angle_beta   162.94106383
_cell_angle_gamma   24.22274077
_symmetry_Int_Tables_number   1
_chemical_formula_structural   Sr2Li2Nb3O10
_chemical_formula_sum   'Sr2 Li2 Nb3 O10'
_cell_volume   216.84955319
_cell_formula_units_Z   1
loop_
 _symmetry_equiv_pos_site_id
 _symmetry_equiv_pos_as_xyz
  1  'x, y, z'
loop_
 _atom_site_type_symbol
 _atom_site_label
 _atom_site_symmetry_multiplicity
 _atom_site_fract_x
 _atom_site_fract_y
 _atom_site_fract_z
 _atom_site_occupancy
  Sr  Sr0  1  0.418490  0.416751  0.000000  1
  Sr  Sr1  1  0.583249  0.581510  0.000000  1
  Li  Li2  1  0.750016  0.249984  0.500000  1
  Li  Li3  1  0.250016  0.749984  0.500000  1
  Nb  Nb4  1  0.014005  0.985995  0.000000  1
  Nb  Nb5  1  0.157191  0.157878  0.000000  1
  Nb  Nb6  1  0.842122  0.842809  0.000000  1
  O  O7  1  0.081955  0.070407  0.000000  1
  O  O8  1  0.650132  0.148901  0.500687  1
  O  O9  1  0.229383  0.228410  0.000000  1
  O  O10  1  0.851099  0.349868  0.499312  1
  O  O11  1  0.771590  0.770617  0.000000  1
  O  O12  1  0.929593  0.918045  0.000000  1
  O  O13  1  0.513753  0.978724  0.492477  1
  O  O14  1  0.149445  0.648214  0.499312  1
  O  O15  1  0.021276  0.486247  0.507523  1
  O  O16  1  0.351786  0.850555  0.500687  1
