# generated using pymatgen
data_Sn2(SO4)3
_symmetry_space_group_name_H-M   'P 1'
_cell_length_a   8.85305333
_cell_length_b   9.23227096
_cell_length_c   12.47215989
_cell_angle_alpha   90.00000000
_cell_angle_beta   87.89206949
_cell_angle_gamma   90.00000000
_symmetry_Int_Tables_number   1
_chemical_formula_structural   Sn2(SO4)3
_chemical_formula_sum   'Sn8 S12 O48'
_cell_volume   1018.70704863
_cell_formula_units_Z   4
loop_
 _symmetry_equiv_pos_site_id
 _symmetry_equiv_pos_as_xyz
  1  'x, y, z'
loop_
 _atom_site_type_symbol
 _atom_site_label
 _atom_site_symmetry_multiplicity
 _atom_site_fract_x
 _atom_site_fract_y
 _atom_site_fract_z
 _atom_site_occupancy
  Sn  Sn0  1  0.253098  0.970073  0.377728  1
  Sn  Sn1  1  0.247248  0.538805  0.609792  1
  Sn  Sn2  1  0.246902  0.470073  0.122272  1
  Sn  Sn3  1  0.252752  0.038805  0.890208  1
  Sn  Sn4  1  0.747248  0.961195  0.109792  1
  Sn  Sn5  1  0.753098  0.529927  0.877728  1
  Sn  Sn6  1  0.752752  0.461195  0.390208  1
  Sn  Sn7  1  0.746902  0.029927  0.622272  1
  S  S8  1  0.036105  0.272757  0.506370  1
  S  S9  1  0.094150  0.111067  0.139377  1
  S  S10  1  0.125652  0.370513  0.843572  1
  S  S11  1  0.374348  0.870513  0.656428  1
  S  S12  1  0.405850  0.611067  0.360623  1
  S  S13  1  0.463895  0.772757  0.993630  1
  S  S14  1  0.536105  0.227243  0.006370  1
  S  S15  1  0.594150  0.388933  0.639377  1
  S  S16  1  0.625652  0.129487  0.343572  1
  S  S17  1  0.874348  0.629487  0.156428  1
  S  S18  1  0.905850  0.888933  0.860623  1
  S  S19  1  0.963895  0.727243  0.493630  1
  O  O20  1  0.042339  0.615466  0.562196  1
  O  O21  1  0.033712  0.650424  0.124598  1
  O  O22  1  0.065857  0.938644  0.831865  1
  O  O23  1  0.056000  0.762668  0.397493  1
  O  O24  1  0.071816  0.147658  0.438653  1
  O  O25  1  0.103647  0.258486  0.181115  1
  O  O26  1  0.111676  0.115650  0.017112  1
  O  O27  1  0.128735  0.471940  0.747699  1
  O  O28  1  0.185251  0.343045  0.535357  1
  O  O29  1  0.195808  0.227364  0.804060  1
  O  O30  1  0.216897  0.431234  0.928063  1
  O  O31  1  0.202177  0.008984  0.182345  1
  O  O32  1  0.297823  0.508984  0.317655  1
  O  O33  1  0.283103  0.931234  0.571937  1
  O  O34  1  0.304192  0.727364  0.695940  1
  O  O35  1  0.314749  0.843045  0.964643  1
  O  O36  1  0.388324  0.615650  0.482888  1
  O  O37  1  0.371265  0.971940  0.752301  1
  O  O38  1  0.396353  0.758486  0.318885  1
  O  O39  1  0.428184  0.647658  0.061347  1
  O  O40  1  0.444000  0.262668  0.102507  1
  O  O41  1  0.466288  0.150424  0.375402  1
  O  O42  1  0.434143  0.438644  0.668135  1
  O  O43  1  0.457661  0.115466  0.937804  1
  O  O44  1  0.542339  0.884534  0.062196  1
  O  O45  1  0.565857  0.561356  0.331865  1
  O  O46  1  0.533712  0.849576  0.624598  1
  O  O47  1  0.556000  0.737332  0.897493  1
  O  O48  1  0.571816  0.352342  0.938653  1
  O  O49  1  0.603647  0.241514  0.681115  1
  O  O50  1  0.628735  0.028060  0.247699  1
  O  O51  1  0.611676  0.384350  0.517112  1
  O  O52  1  0.685251  0.156955  0.035357  1
  O  O53  1  0.695808  0.272636  0.304060  1
  O  O54  1  0.716897  0.068766  0.428063  1
  O  O55  1  0.702177  0.491016  0.682345  1
  O  O56  1  0.797823  0.991016  0.817655  1
  O  O57  1  0.783103  0.568766  0.071937  1
  O  O58  1  0.804192  0.772636  0.195940  1
  O  O59  1  0.814749  0.656955  0.464643  1
  O  O60  1  0.871265  0.528060  0.252301  1
  O  O61  1  0.888324  0.884350  0.982888  1
  O  O62  1  0.896353  0.741514  0.818885  1
  O  O63  1  0.928184  0.852342  0.561347  1
  O  O64  1  0.944000  0.237332  0.602507  1
  O  O65  1  0.934143  0.061356  0.168135  1
  O  O66  1  0.966288  0.349576  0.875402  1
  O  O67  1  0.957661  0.384534  0.437804  1
