# generated using pymatgen
data_VF5
_symmetry_space_group_name_H-M   'P 1'
_cell_length_a   12.94423742
_cell_length_b   5.76765941
_cell_length_c   5.06644542
_cell_angle_alpha   90.00000000
_cell_angle_beta   90.00000000
_cell_angle_gamma   90.00000000
_symmetry_Int_Tables_number   1
_chemical_formula_structural   VF5
_chemical_formula_sum   'V4 F20'
_cell_volume   378.25044283
_cell_formula_units_Z   4
loop_
 _symmetry_equiv_pos_site_id
 _symmetry_equiv_pos_as_xyz
  1  'x, y, z'
loop_
 _atom_site_type_symbol
 _atom_site_label
 _atom_site_symmetry_multiplicity
 _atom_site_fract_x
 _atom_site_fract_y
 _atom_site_fract_z
 _atom_site_occupancy
  V  V0  1  0.155935  0.639880  0.429717  1
  V  V1  1  0.344065  0.360120  0.929717  1
  V  V2  1  0.655935  0.860120  0.570283  1
  V  V3  1  0.844065  0.139880  0.070283  1
  F  F4  1  0.074539  0.658583  0.155998  1
  F  F5  1  0.086508  0.834773  0.622348  1
  F  F6  1  0.098255  0.389151  0.563899  1
  F  F7  1  0.240329  0.413421  0.218163  1
  F  F8  1  0.247353  0.847656  0.324451  1
  F  F9  1  0.252647  0.152344  0.824451  1
  F  F10  1  0.259671  0.586579  0.718163  1
  F  F11  1  0.401745  0.610849  0.063899  1
  F  F12  1  0.413492  0.165227  0.122348  1
  F  F13  1  0.425461  0.341417  0.655998  1
  F  F14  1  0.574539  0.841417  0.844002  1
  F  F15  1  0.586508  0.665227  0.377652  1
  F  F16  1  0.598255  0.110849  0.436101  1
  F  F17  1  0.740329  0.086579  0.781837  1
  F  F18  1  0.747353  0.652344  0.675549  1
  F  F19  1  0.752647  0.347656  0.175549  1
  F  F20  1  0.759671  0.913421  0.281837  1
  F  F21  1  0.901745  0.889151  0.936101  1
  F  F22  1  0.913492  0.334773  0.877652  1
  F  F23  1  0.925461  0.158583  0.344002  1
