# generated using pymatgen
data_Li6FeS4
_symmetry_space_group_name_H-M   'P 1'
_cell_length_a   7.96060086
_cell_length_b   7.96070992
_cell_length_c   5.84804905
_cell_angle_alpha   90.00153158
_cell_angle_beta   90.00037982
_cell_angle_gamma   89.08855990
_symmetry_Int_Tables_number   1
_chemical_formula_structural   Li6FeS4
_chemical_formula_sum   'Li12 Fe2 S8'
_cell_volume   370.55587468
_cell_formula_units_Z   2
loop_
 _symmetry_equiv_pos_site_id
 _symmetry_equiv_pos_as_xyz
  1  'x, y, z'
loop_
 _atom_site_type_symbol
 _atom_site_label
 _atom_site_symmetry_multiplicity
 _atom_site_fract_x
 _atom_site_fract_y
 _atom_site_fract_z
 _atom_site_occupancy
  Li  Li0  1  0.023410  0.523385  0.749998  1
  Li  Li1  1  0.022810  0.977176  0.749996  1
  Li  Li2  1  0.250020  0.250025  0.710265  1
  Li  Li3  1  0.250015  0.250031  0.211966  1
  Li  Li4  1  0.477209  0.522833  0.750013  1
  Li  Li5  1  0.476584  0.976612  0.749989  1
  Li  Li6  1  0.519217  0.019240  0.249992  1
  Li  Li7  1  0.518862  0.481178  0.250009  1
  Li  Li8  1  0.750013  0.750002  0.288037  1
  Li  Li9  1  0.750005  0.750015  0.789745  1
  Li  Li10  1  0.981146  0.018842  0.249996  1
  Li  Li11  1  0.980786  0.480761  0.249994  1
  Fe  Fe12  1  0.250035  0.749973  0.250051  1
  Fe  Fe13  1  0.750002  0.250022  0.749946  1
  S  S14  1  0.003923  0.249956  0.965864  1
  S  S15  1  0.249917  0.001255  0.464291  1
  S  S16  1  0.250090  0.498799  0.464315  1
  S  S17  1  0.496107  0.250057  0.965874  1
  S  S18  1  0.501230  0.749945  0.035705  1
  S  S19  1  0.750027  0.996094  0.534127  1
  S  S20  1  0.749980  0.503920  0.534128  1
  S  S21  1  0.998791  0.750058  0.035698  1
