# generated using pymatgen
data_LiCr3P4O15
_symmetry_space_group_name_H-M   'P 1'
_cell_length_a   17.28306667
_cell_length_b   6.44298581
_cell_length_c   10.49910986
_cell_angle_alpha   90.00000000
_cell_angle_beta   90.00000000
_cell_angle_gamma   89.74628083
_symmetry_Int_Tables_number   1
_chemical_formula_structural   LiCr3P4O15
_chemical_formula_sum   'Li4 Cr12 P16 O60'
_cell_volume   1169.11222624
_cell_formula_units_Z   4
loop_
 _symmetry_equiv_pos_site_id
 _symmetry_equiv_pos_as_xyz
  1  'x, y, z'
loop_
 _atom_site_type_symbol
 _atom_site_label
 _atom_site_symmetry_multiplicity
 _atom_site_fract_x
 _atom_site_fract_y
 _atom_site_fract_z
 _atom_site_occupancy
  Li  Li0  1  0.020032  0.213567  0.044068  1
  Li  Li1  1  0.501455  0.823134  0.961943  1
  Li  Li2  1  0.520032  0.213567  0.455932  1
  Li  Li3  1  0.001455  0.823134  0.538057  1
  Cr  Cr4  1  0.136077  0.579542  0.488945  1
  Cr  Cr5  1  0.165515  0.605695  0.002409  1
  Cr  Cr6  1  0.246576  0.315469  0.737679  1
  Cr  Cr7  1  0.251156  0.813318  0.238876  1
  Cr  Cr8  1  0.333801  0.101546  0.502901  1
  Cr  Cr9  1  0.365873  0.081563  0.990392  1
  Cr  Cr10  1  0.636077  0.579542  0.011055  1
  Cr  Cr11  1  0.665515  0.605695  0.497591  1
  Cr  Cr12  1  0.746576  0.315469  0.762321  1
  Cr  Cr13  1  0.751156  0.813318  0.261124  1
  Cr  Cr14  1  0.833801  0.101546  0.997099  1
  Cr  Cr15  1  0.865873  0.081563  0.509608  1
  P  P16  1  0.052235  0.633028  0.228795  1
  P  P17  1  0.070628  0.477613  0.757986  1
  P  P18  1  0.175578  0.082022  0.479367  1
  P  P19  1  0.205250  0.097961  0.001581  1
  P  P20  1  0.295781  0.595810  0.500312  1
  P  P21  1  0.324476  0.577694  0.980145  1
  P  P22  1  0.427812  0.957379  0.262419  1
  P  P23  1  0.449251  0.151892  0.723209  1
  P  P24  1  0.552235  0.633028  0.271205  1
  P  P25  1  0.570628  0.477613  0.742014  1
  P  P26  1  0.675578  0.082022  0.020633  1
  P  P27  1  0.705250  0.097961  0.498419  1
  P  P28  1  0.795781  0.595810  0.999688  1
  P  P29  1  0.824476  0.577694  0.519855  1
  P  P30  1  0.927812  0.957379  0.237581  1
  P  P31  1  0.949251  0.151892  0.776791  1
  O  O32  1  0.022593  0.461833  0.148216  1
  O  O33  1  0.006937  0.847982  0.196356  1
  O  O34  1  0.046258  0.611218  0.373932  1
  O  O35  1  0.061504  0.594822  0.630999  1
  O  O36  1  0.084168  0.616639  0.872043  1
  O  O37  1  0.132346  0.304716  0.748911  1
  O  O38  1  0.124018  0.894066  0.496330  1
  O  O39  1  0.129890  0.277276  0.453409  1
  O  O40  1  0.137421  0.691447  0.188470  1
  O  O41  1  0.154050  0.911924  0.983612  1
  O  O42  1  0.157191  0.292328  0.027489  1
  O  O43  1  0.240541  0.042260  0.373771  1
  O  O44  1  0.232355  0.106695  0.597578  1
  O  O45  1  0.236478  0.616335  0.383503  1
  O  O46  1  0.232058  0.546350  0.606833  1
  O  O47  1  0.268308  0.052307  0.109211  1
  O  O48  1  0.263584  0.121286  0.885258  1
  O  O49  1  0.266919  0.608150  0.096610  1
  O  O50  1  0.260038  0.548247  0.872416  1
  O  O51  1  0.338858  0.793207  0.530640  1
  O  O52  1  0.346509  0.408085  0.480089  1
  O  O53  1  0.361832  0.195143  0.688482  1
  O  O54  1  0.373501  0.770765  0.960544  1
  O  O55  1  0.374856  0.387656  0.996369  1
  O  O56  1  0.362843  0.796146  0.260066  1
  O  O57  1  0.416951  0.114294  0.370225  1
  O  O58  1  0.442285  0.051804  0.130224  1
  O  O59  1  0.453023  0.073206  0.862090  1
  O  O60  1  0.486108  0.383099  0.721641  1
  O  O61  1  0.488564  0.030606  0.620972  1
  O  O62  1  0.522593  0.461833  0.351784  1
  O  O63  1  0.506937  0.847982  0.303644  1
  O  O64  1  0.546258  0.611218  0.126068  1
  O  O65  1  0.561504  0.594822  0.869001  1
  O  O66  1  0.584168  0.616639  0.627957  1
  O  O67  1  0.632346  0.304716  0.751089  1
  O  O68  1  0.624018  0.894066  0.003670  1
  O  O69  1  0.629890  0.277276  0.046591  1
  O  O70  1  0.637421  0.691447  0.311530  1
  O  O71  1  0.654050  0.911924  0.516388  1
  O  O72  1  0.657191  0.292328  0.472511  1
  O  O73  1  0.740541  0.042260  0.126229  1
  O  O74  1  0.732355  0.106695  0.902422  1
  O  O75  1  0.736478  0.616335  0.116497  1
  O  O76  1  0.732058  0.546350  0.893167  1
  O  O77  1  0.768308  0.052307  0.390789  1
  O  O78  1  0.763584  0.121286  0.614742  1
  O  O79  1  0.766919  0.608150  0.403390  1
  O  O80  1  0.760038  0.548247  0.627584  1
  O  O81  1  0.838858  0.793207  0.969360  1
  O  O82  1  0.846509  0.408085  0.019911  1
  O  O83  1  0.861832  0.195143  0.811518  1
  O  O84  1  0.873501  0.770765  0.539456  1
  O  O85  1  0.874856  0.387656  0.503631  1
  O  O86  1  0.862843  0.796146  0.239934  1
  O  O87  1  0.916951  0.114294  0.129775  1
  O  O88  1  0.942284  0.051804  0.369776  1
  O  O89  1  0.953023  0.073206  0.637910  1
  O  O90  1  0.986108  0.383099  0.778359  1
  O  O91  1  0.988564  0.030606  0.879028  1
