# generated using pymatgen
data_SnP2O7
_symmetry_space_group_name_H-M   'P 1'
_cell_length_a   12.71794401
_cell_length_b   5.17490277
_cell_length_c   8.74975813
_cell_angle_alpha   89.99998260
_cell_angle_beta   102.71050194
_cell_angle_gamma   90.00000477
_symmetry_Int_Tables_number   1
_chemical_formula_structural   SnP2O7
_chemical_formula_sum   'Sn4 P8 O28'
_cell_volume   561.74582938
_cell_formula_units_Z   4
loop_
 _symmetry_equiv_pos_site_id
 _symmetry_equiv_pos_as_xyz
  1  'x, y, z'
loop_
 _atom_site_type_symbol
 _atom_site_label
 _atom_site_symmetry_multiplicity
 _atom_site_fract_x
 _atom_site_fract_y
 _atom_site_fract_z
 _atom_site_occupancy
  Sn  Sn0  1  0.025976  0.254282  0.261275  1
  Sn  Sn1  1  0.525976  0.245717  0.761275  1
  Sn  Sn2  1  0.474024  0.754283  0.238725  1
  Sn  Sn3  1  0.974024  0.745718  0.738725  1
  P  P4  1  0.117510  0.251391  0.926249  1
  P  P5  1  0.139489  0.757570  0.469364  1
  P  P6  1  0.382490  0.751391  0.573750  1
  P  P7  1  0.360511  0.257570  0.030636  1
  P  P8  1  0.639489  0.742430  0.969364  1
  P  P9  1  0.617510  0.248609  0.426250  1
  P  P10  1  0.860511  0.242430  0.530636  1
  P  P11  1  0.882490  0.748609  0.073751  1
  O  O12  1  0.061901  0.081511  0.790061  1
  O  O13  1  0.087988  0.537164  0.896246  1
  O  O14  1  0.065194  0.687648  0.576224  1
  O  O15  1  0.137141  0.041700  0.418538  1
  O  O16  1  0.104798  0.159842  0.087152  1
  O  O17  1  0.124228  0.570768  0.329304  1
  O  O18  1  0.242190  0.217055  0.923237  1
  O  O19  1  0.257810  0.717055  0.576763  1
  O  O20  1  0.375772  0.070768  0.170696  1
  O  O21  1  0.434806  0.187648  0.923776  1
  O  O22  1  0.412012  0.037164  0.603754  1
  O  O23  1  0.395202  0.659842  0.412848  1
  O  O24  1  0.438099  0.581511  0.709939  1
  O  O25  1  0.362859  0.541700  0.081462  1
  O  O26  1  0.637141  0.458300  0.918538  1
  O  O27  1  0.561901  0.418489  0.290061  1
  O  O28  1  0.604798  0.340158  0.587152  1
  O  O29  1  0.587988  0.962836  0.396246  1
  O  O30  1  0.565194  0.812352  0.076224  1
  O  O31  1  0.624228  0.929232  0.829304  1
  O  O32  1  0.742190  0.282945  0.423237  1
  O  O33  1  0.757810  0.782945  0.076763  1
  O  O34  1  0.875772  0.429232  0.670696  1
  O  O35  1  0.895202  0.840158  0.912848  1
  O  O36  1  0.862859  0.958300  0.581462  1
  O  O37  1  0.934806  0.312352  0.423776  1
  O  O38  1  0.912012  0.462836  0.103754  1
  O  O39  1  0.938099  0.918489  0.209939  1
