# generated using pymatgen
data_Li5V2OF11
_symmetry_space_group_name_H-M   'P 1'
_cell_length_a   9.14322310
_cell_length_b   5.58768122
_cell_length_c   8.91008128
_cell_angle_alpha   106.95027801
_cell_angle_beta   79.91698257
_cell_angle_gamma   95.49901662
_symmetry_Int_Tables_number   1
_chemical_formula_structural   Li5V2OF11
_chemical_formula_sum   'Li10 V4 O2 F22'
_cell_volume   428.22533694
_cell_formula_units_Z   2
loop_
 _symmetry_equiv_pos_site_id
 _symmetry_equiv_pos_as_xyz
  1  'x, y, z'
loop_
 _atom_site_type_symbol
 _atom_site_label
 _atom_site_symmetry_multiplicity
 _atom_site_fract_x
 _atom_site_fract_y
 _atom_site_fract_z
 _atom_site_occupancy
  Li  Li0  1  0.219276  0.163805  0.808739  1
  Li  Li1  1  0.102954  0.672975  0.942955  1
  Li  Li2  1  0.013832  0.974145  0.359776  1
  Li  Li3  1  0.563989  0.132375  0.938078  1
  Li  Li4  1  0.472344  0.577621  0.715865  1
  Li  Li5  1  0.518483  0.464334  0.342774  1
  Li  Li6  1  0.365102  0.912345  0.388129  1
  Li  Li7  1  0.765863  0.682760  0.809248  1
  Li  Li8  1  0.902121  0.291319  0.039183  1
  Li  Li9  1  0.869469  0.416580  0.406205  1
  V  V10  1  0.133073  0.607086  0.569269  1
  V  V11  1  0.241792  0.275636  0.178030  1
  V  V12  1  0.636272  0.099866  0.571268  1
  V  V13  1  0.746210  0.775248  0.182911  1
  O  O14  1  0.258165  0.509729  0.374304  1
  O  O15  1  0.761622  0.005496  0.374623  1
  F  F16  1  0.019023  0.299572  0.522163  1
  F  F17  1  0.026076  0.275436  0.215209  1
  F  F18  1  0.049315  0.329276  0.886313  1
  F  F19  1  0.227360  0.005191  0.979868  1
  F  F20  1  0.258767  0.528041  0.691303  1
  F  F21  1  0.264703  0.488247  0.055298  1
  F  F22  1  0.232002  0.932875  0.599628  1
  F  F23  1  0.454034  0.245521  0.147948  1
  F  F24  1  0.495332  0.216193  0.471783  1
  F  F25  1  0.224074  0.009847  0.277959  1
  F  F26  1  0.491533  0.236583  0.762824  1
  F  F27  1  0.751677  0.037282  0.697534  1
  F  F28  1  0.769712  0.992877  0.053968  1
  F  F29  1  0.528842  0.780477  0.534711  1
  F  F30  1  0.535797  0.756655  0.230354  1
  F  F31  1  0.568057  0.791119  0.862351  1
  F  F32  1  0.723918  0.436072  0.601578  1
  F  F33  1  0.738918  0.498990  0.277297  1
  F  F34  1  0.743344  0.499045  0.989641  1
  F  F35  1  0.958675  0.752742  0.150012  1
  F  F36  1  0.993110  0.723762  0.473418  1
  F  F37  1  0.996963  0.724683  0.767483  1
