# generated using pymatgen
data_Li4Co3Ni(PO4)4
_symmetry_space_group_name_H-M   'P 1'
_cell_length_a   4.74575706
_cell_length_b   10.23215507
_cell_length_c   5.96513937
_cell_angle_alpha   90.00000000
_cell_angle_beta   90.00000000
_cell_angle_gamma   90.03626374
_symmetry_Int_Tables_number   1
_chemical_formula_structural   Li4Co3Ni(PO4)4
_chemical_formula_sum   'Li4 Co3 Ni1 P4 O16'
_cell_volume   289.66306658
_cell_formula_units_Z   1
loop_
 _symmetry_equiv_pos_site_id
 _symmetry_equiv_pos_as_xyz
  1  'x, y, z'
loop_
 _atom_site_type_symbol
 _atom_site_label
 _atom_site_symmetry_multiplicity
 _atom_site_fract_x
 _atom_site_fract_y
 _atom_site_fract_z
 _atom_site_occupancy
  Li  Li0  1  0.000212  0.000444  0.999398  1
  Li  Li1  1  0.000212  0.000444  0.500602  1
  Li  Li2  1  0.500137  0.498778  0.500727  1
  Li  Li3  1  0.500137  0.498778  0.999273  1
  Co  Co4  1  0.025731  0.722532  0.750000  1
  Co  Co5  1  0.478364  0.221769  0.750000  1
  Co  Co6  1  0.522067  0.778527  0.250000  1
  Ni  Ni7  1  0.980266  0.276543  0.250000  1
  P  P8  1  0.083796  0.592158  0.250000  1
  P  P9  1  0.413687  0.095330  0.250000  1
  P  P10  1  0.586886  0.906674  0.750000  1
  P  P11  1  0.915085  0.405863  0.750000  1
  O  O12  1  0.203011  0.450751  0.250000  1
  O  O13  1  0.223198  0.663895  0.044112  1
  O  O14  1  0.223198  0.663895  0.455888  1
  O  O15  1  0.238168  0.401533  0.750000  1
  O  O16  1  0.263432  0.901938  0.750000  1
  O  O17  1  0.272496  0.166152  0.044028  1
  O  O18  1  0.272496  0.166152  0.455972  1
  O  O19  1  0.295926  0.953284  0.250000  1
  O  O20  1  0.706280  0.047823  0.750000  1
  O  O21  1  0.725760  0.835212  0.543642  1
  O  O22  1  0.725760  0.835212  0.956358  1
  O  O23  1  0.737085  0.100675  0.250000  1
  O  O24  1  0.761004  0.598254  0.250000  1
  O  O25  1  0.775662  0.335036  0.543221  1
  O  O26  1  0.775662  0.335036  0.956779  1
  O  O27  1  0.794283  0.547311  0.750000  1
