# generated using pymatgen
data_Li4Cr3NiO8
_symmetry_space_group_name_H-M   'P 1'
_cell_length_a   5.09707156
_cell_length_b   5.90023394
_cell_length_c   5.09262901
_cell_angle_alpha   90.00537687
_cell_angle_beta   70.21445116
_cell_angle_gamma   89.97927967
_symmetry_Int_Tables_number   1
_chemical_formula_structural   Li4Cr3NiO8
_chemical_formula_sum   'Li4 Cr3 Ni1 O8'
_cell_volume   144.11393420
_cell_formula_units_Z   1
loop_
 _symmetry_equiv_pos_site_id
 _symmetry_equiv_pos_as_xyz
  1  'x, y, z'
loop_
 _atom_site_type_symbol
 _atom_site_label
 _atom_site_symmetry_multiplicity
 _atom_site_fract_x
 _atom_site_fract_y
 _atom_site_fract_z
 _atom_site_occupancy
  Li  Li0  1  0.999980  0.999120  0.999941  1
  Li  Li1  1  0.000001  0.500731  0.999982  1
  Li  Li2  1  0.000018  0.242662  0.499952  1
  Li  Li3  1  -0.000008  0.757327  0.499897  1
  Cr  Cr4  1  0.499872  0.249678  0.000190  1
  Cr  Cr5  1  0.500005  0.750732  0.000204  1
  Cr  Cr6  1  0.499969  0.499989  0.499879  1
  Ni  Ni7  1  0.500024  0.999530  0.500405  1
  O  O8  1  0.266999  0.000036  0.234924  1
  O  O9  1  0.274481  0.500222  0.248313  1
  O  O10  1  0.724918  0.266130  0.258506  1
  O  O11  1  0.275145  0.266269  0.741367  1
  O  O12  1  0.725340  0.733823  0.258361  1
  O  O13  1  0.733093  0.999813  0.764934  1
  O  O14  1  0.274628  0.733951  0.741562  1
  O  O15  1  0.725535  0.499987  0.751582  1
