# generated using pymatgen
data_Li2CuSb(PO4)2
_symmetry_space_group_name_H-M   'P 1'
_cell_length_a   10.66260237
_cell_length_b   6.55658600
_cell_length_c   4.79947316
_cell_angle_alpha   90.00000000
_cell_angle_beta   92.89349258
_cell_angle_gamma   90.00000000
_symmetry_Int_Tables_number   1
_chemical_formula_structural   Li2CuSb(PO4)2
_chemical_formula_sum   'Li4 Cu2 Sb2 P4 O16'
_cell_volume   335.10469012
_cell_formula_units_Z   2
loop_
 _symmetry_equiv_pos_site_id
 _symmetry_equiv_pos_as_xyz
  1  'x, y, z'
loop_
 _atom_site_type_symbol
 _atom_site_label
 _atom_site_symmetry_multiplicity
 _atom_site_fract_x
 _atom_site_fract_y
 _atom_site_fract_z
 _atom_site_occupancy
  Li  Li0  1  0.000000  0.000000  0.000000  1
  Li  Li1  1  0.000000  0.500000  0.000000  1
  Li  Li2  1  0.500000  0.000000  0.500000  1
  Li  Li3  1  0.500000  0.500000  0.500000  1
  Cu  Cu4  1  0.291360  0.250000  0.967157  1
  Cu  Cu5  1  0.708640  0.750000  0.032843  1
  Sb  Sb6  1  0.213522  0.750000  0.476131  1
  Sb  Sb7  1  0.786478  0.250000  0.523869  1
  P  P8  1  0.083976  0.250000  0.409270  1
  P  P9  1  0.413829  0.750000  0.910574  1
  P  P10  1  0.586171  0.250000  0.089426  1
  P  P11  1  0.916024  0.750000  0.590730  1
  O  O12  1  0.055252  0.750000  0.741233  1
  O  O13  1  0.077991  0.250000  0.727028  1
  O  O14  1  0.147348  0.058770  0.286067  1
  O  O15  1  0.147348  0.441230  0.286067  1
  O  O16  1  0.334006  0.562500  0.782470  1
  O  O17  1  0.334006  0.937500  0.782470  1
  O  O18  1  0.423572  0.750000  0.231026  1
  O  O19  1  0.457023  0.250000  0.222159  1
  O  O20  1  0.542977  0.750000  0.777841  1
  O  O21  1  0.576428  0.250000  0.768974  1
  O  O22  1  0.665994  0.062500  0.217530  1
  O  O23  1  0.665994  0.437500  0.217530  1
  O  O24  1  0.852652  0.558770  0.713933  1
  O  O25  1  0.852652  0.941230  0.713933  1
  O  O26  1  0.922009  0.750000  0.272972  1
  O  O27  1  0.944748  0.250000  0.258767  1
