# generated using pymatgen
data_Li4Mn2Co3Te3O16
_symmetry_space_group_name_H-M   'P 1'
_cell_length_a   6.13420299
_cell_length_b   6.28927171
_cell_length_c   9.96986705
_cell_angle_alpha   88.10987941
_cell_angle_beta   89.76938717
_cell_angle_gamma   120.10659964
_symmetry_Int_Tables_number   1
_chemical_formula_structural   Li4Mn2Co3Te3O16
_chemical_formula_sum   'Li4 Mn2 Co3 Te3 O16'
_cell_volume   332.46941630
_cell_formula_units_Z   1
loop_
 _symmetry_equiv_pos_site_id
 _symmetry_equiv_pos_as_xyz
  1  'x, y, z'
loop_
 _atom_site_type_symbol
 _atom_site_label
 _atom_site_symmetry_multiplicity
 _atom_site_fract_x
 _atom_site_fract_y
 _atom_site_fract_z
 _atom_site_occupancy
  Li  Li0  1  0.310745  0.640227  0.873736  1
  Li  Li1  1  0.993295  0.020234  0.993303  1
  Li  Li2  1  0.992014  0.992584  0.507130  1
  Li  Li3  1  0.644580  0.335265  0.399560  1
  Mn  Mn4  1  0.362840  0.689361  0.511680  1
  Mn  Mn5  1  0.668427  0.297406  0.973133  1
  Co  Co6  1  0.676871  0.859646  0.213428  1
  Co  Co7  1  0.832634  0.655512  0.718275  1
  Co  Co8  1  0.828603  0.153368  0.715839  1
  Te  Te9  1  0.175519  0.852038  0.211796  1
  Te  Te10  1  0.186274  0.369247  0.219692  1
  Te  Te11  1  0.335383  0.155892  0.715025  1
  O  O12  1  0.173863  0.861244  0.606194  1
  O  O13  1  0.026120  0.532009  0.327651  1
  O  O14  1  0.325464  0.691745  0.102710  1
  O  O15  1  0.012386  0.983192  0.323973  1
  O  O16  1  0.015029  0.998671  0.814403  1
  O  O17  1  0.179631  0.313099  0.607774  1
  O  O18  1  0.465542  0.975113  0.324383  1
  O  O19  1  0.481045  0.533053  0.337448  1
  O  O20  1  0.337775  0.142375  0.088828  1
  O  O21  1  0.695244  0.864999  0.615509  1
  O  O22  1  0.497689  0.436879  0.840494  1
  O  O23  1  0.487152  0.004641  0.827071  1
  O  O24  1  0.648893  0.317864  0.606316  1
  O  O25  1  0.873908  0.719863  0.108454  1
  O  O26  1  0.939984  0.431995  0.834409  1
  O  O27  1  0.833091  0.172781  0.089624  1
