# generated using pymatgen
data_LiCoSiO4
_symmetry_space_group_name_H-M   'P 1'
_cell_length_a   6.04423089
_cell_length_b   11.10862464
_cell_length_c   5.02059345
_cell_angle_alpha   90.00000000
_cell_angle_beta   90.00000000
_cell_angle_gamma   90.00000000
_symmetry_Int_Tables_number   1
_chemical_formula_structural   LiCoSiO4
_chemical_formula_sum   'Li4 Co4 Si4 O16'
_cell_volume   337.09816888
_cell_formula_units_Z   4
loop_
 _symmetry_equiv_pos_site_id
 _symmetry_equiv_pos_as_xyz
  1  'x, y, z'
loop_
 _atom_site_type_symbol
 _atom_site_label
 _atom_site_symmetry_multiplicity
 _atom_site_fract_x
 _atom_site_fract_y
 _atom_site_fract_z
 _atom_site_occupancy
  Li  Li0  1  0.500716  0.922584  0.330176  1
  Li  Li1  1  0.500716  0.422584  0.169824  1
  Li  Li2  1  0.000716  0.577416  0.830176  1
  Li  Li3  1  0.000716  0.077416  0.669824  1
  Co  Co4  1  0.247078  0.332854  0.671599  1
  Co  Co5  1  0.247078  0.832854  0.828401  1
  Co  Co6  1  0.747078  0.667146  0.328401  1
  Co  Co7  1  0.747078  0.167146  0.171599  1
  Si  Si8  1  0.250331  0.672337  0.329904  1
  Si  Si9  1  0.250331  0.172337  0.170096  1
  Si  Si10  1  0.750331  0.327663  0.670096  1
  Si  Si11  1  0.750331  0.827663  0.829904  1
  O  O12  1  0.023848  0.606381  0.218652  1
  O  O13  1  0.023848  0.106381  0.281348  1
  O  O14  1  0.232162  0.183857  0.844231  1
  O  O15  1  0.271341  0.307859  0.302965  1
  O  O16  1  0.271341  0.807859  0.197035  1
  O  O17  1  0.232162  0.683857  0.655769  1
  O  O18  1  0.474276  0.092680  0.239631  1
  O  O19  1  0.474276  0.592680  0.260369  1
  O  O20  1  0.523848  0.893619  0.718652  1
  O  O21  1  0.523848  0.393619  0.781348  1
  O  O22  1  0.771341  0.192141  0.802965  1
  O  O23  1  0.732162  0.316143  0.344231  1
  O  O24  1  0.771341  0.692141  0.697035  1
  O  O25  1  0.732162  0.816143  0.155769  1
  O  O26  1  0.974276  0.407320  0.739631  1
  O  O27  1  0.974276  0.907320  0.760369  1
