# generated using pymatgen
data_Li2Cr3(CoO4)3
_symmetry_space_group_name_H-M   'P 1'
_cell_length_a   6.65628587
_cell_length_b   5.94050570
_cell_length_c   5.78639721
_cell_angle_alpha   91.16646003
_cell_angle_beta   102.78554116
_cell_angle_gamma   74.77242681
_symmetry_Int_Tables_number   1
_chemical_formula_structural   Li2Cr3(CoO4)3
_chemical_formula_sum   'Li2 Cr3 Co3 O12'
_cell_volume   215.12328593
_cell_formula_units_Z   1
loop_
 _symmetry_equiv_pos_site_id
 _symmetry_equiv_pos_as_xyz
  1  'x, y, z'
loop_
 _atom_site_type_symbol
 _atom_site_label
 _atom_site_symmetry_multiplicity
 _atom_site_fract_x
 _atom_site_fract_y
 _atom_site_fract_z
 _atom_site_occupancy
  Li  Li0  1  0.677900  0.319520  0.686889  1
  Li  Li1  1  0.322100  0.680480  0.313111  1
  Cr  Cr2  1  0.325811  0.160041  0.831959  1
  Cr  Cr3  1  0.000000  0.500000  0.500000  1
  Cr  Cr4  1  0.674189  0.839959  0.168041  1
  Co  Co5  1  0.332321  0.164668  0.333910  1
  Co  Co6  1  0.000000  0.500000  0.000000  1
  Co  Co7  1  0.667679  0.835332  0.666090  1
  O  O8  1  0.027229  0.280379  0.252248  1
  O  O9  1  0.007208  0.284244  0.751955  1
  O  O10  1  0.637225  0.066318  0.426905  1
  O  O11  1  0.301318  0.392190  0.087970  1
  O  O12  1  0.643347  0.057759  0.897978  1
  O  O13  1  0.314799  0.388459  0.572436  1
  O  O14  1  0.685201  0.611541  0.427564  1
  O  O15  1  0.356653  0.942241  0.102022  1
  O  O16  1  0.698682  0.607810  0.912030  1
  O  O17  1  0.362775  0.933682  0.573095  1
  O  O18  1  0.992792  0.715756  0.248045  1
  O  O19  1  0.972771  0.719621  0.747752  1
