# generated using pymatgen
data_Li4Ni3TeO8
_symmetry_space_group_name_H-M   'P 1'
_cell_length_a   10.29641371
_cell_length_b   10.29641409
_cell_length_c   14.53660092
_cell_angle_alpha   19.74457231
_cell_angle_beta   19.74457131
_cell_angle_gamma   34.02343370
_symmetry_Int_Tables_number   1
_chemical_formula_structural   Li4Ni3TeO8
_chemical_formula_sum   'Li4 Ni3 Te1 O8'
_cell_volume   152.31951542
_cell_formula_units_Z   1
loop_
 _symmetry_equiv_pos_site_id
 _symmetry_equiv_pos_as_xyz
  1  'x, y, z'
loop_
 _atom_site_type_symbol
 _atom_site_label
 _atom_site_symmetry_multiplicity
 _atom_site_fract_x
 _atom_site_fract_y
 _atom_site_fract_z
 _atom_site_occupancy
  Li  Li0  1  0.000000  0.000000  0.500000  1
  Li  Li1  1  0.000000  0.500000  0.500000  1
  Li  Li2  1  0.500000  0.000000  0.500000  1
  Li  Li3  1  0.500000  0.500000  0.500000  1
  Ni  Ni4  1  0.000000  0.500000  0.000000  1
  Ni  Ni5  1  0.500000  0.000000  0.000000  1
  Ni  Ni6  1  0.500000  0.500000  0.000000  1
  Te  Te7  1  0.000000  0.000000  0.000000  1
  O  O8  1  0.000000  0.000000  0.259452  1
  O  O9  1  0.000000  0.536096  0.231946  1
  O  O10  1  0.536096  0.000000  0.231946  1
  O  O11  1  0.000000  0.000000  0.740548  1
  O  O12  1  0.463904  0.463904  0.304137  1
  O  O13  1  0.000000  0.463904  0.768054  1
  O  O14  1  0.463904  0.000000  0.768054  1
  O  O15  1  0.536096  0.536096  0.695863  1
