# generated using pymatgen
data_V4OF11
_symmetry_space_group_name_H-M   'P 1'
_cell_length_a   5.26314036
_cell_length_b   5.46167165
_cell_length_c   17.45299901
_cell_angle_alpha   91.24797744
_cell_angle_beta   98.38114715
_cell_angle_gamma   61.31017801
_symmetry_Int_Tables_number   1
_chemical_formula_structural   V4OF11
_chemical_formula_sum   'V8 O2 F22'
_cell_volume   434.73146553
_cell_formula_units_Z   2
loop_
 _symmetry_equiv_pos_site_id
 _symmetry_equiv_pos_as_xyz
  1  'x, y, z'
loop_
 _atom_site_type_symbol
 _atom_site_label
 _atom_site_symmetry_multiplicity
 _atom_site_fract_x
 _atom_site_fract_y
 _atom_site_fract_z
 _atom_site_occupancy
  V  V0  1  0.770576  0.599430  0.120168  1
  V  V1  1  0.745895  0.121533  0.626260  1
  V  V2  1  0.503092  0.243010  0.248740  1
  V  V3  1  0.491942  0.738534  0.757486  1
  V  V4  1  0.250943  0.871152  0.374448  1
  V  V5  1  0.250653  0.386546  0.874139  1
  V  V6  1  0.000934  0.012739  0.001519  1
  V  V7  1  0.999467  0.497779  0.500195  1
  O  O8  1  0.947535  0.329878  0.065305  1
  O  O9  1  0.422442  0.593330  0.830203  1
  F  F10  1  0.929802  0.838037  0.088111  1
  F  F11  1  0.977263  0.809242  0.562888  1
  F  F12  1  0.539694  0.925096  0.184664  1
  F  F13  1  0.931615  0.033604  0.286169  1
  F  F14  1  0.924227  0.334423  0.588562  1
  F  F15  1  0.922799  0.541604  0.787750  1
  F  F16  1  0.424445  0.799172  0.037909  1
  F  F17  1  0.565046  0.422080  0.161636  1
  F  F18  1  0.578330  0.906931  0.668099  1
  F  F19  1  0.570013  0.713856  0.463067  1
  F  F20  1  0.480311  0.556596  0.311892  1
  F  F21  1  0.517803  0.448724  0.685891  1
  F  F22  1  0.428837  0.085927  0.336976  1
  F  F23  1  0.426285  0.280896  0.537581  1
  F  F24  1  0.574796  0.213890  0.961747  1
  F  F25  1  0.072642  0.657071  0.411723  1
  F  F26  1  0.072458  0.461967  0.211743  1
  F  F27  1  0.077750  0.968567  0.713431  1
  F  F28  1  0.477500  0.064314  0.812677  1
  F  F29  1  0.030958  0.690976  0.938099  1
  F  F30  1  0.019341  0.185472  0.437419  1
  F  F31  1  0.074607  0.167627  0.913507  1
