# generated using pymatgen
data_Li3VO3F2
_symmetry_space_group_name_H-M   'P 1'
_cell_length_a   5.02994299
_cell_length_b   7.73922653
_cell_length_c   5.17370196
_cell_angle_alpha   100.99020888
_cell_angle_beta   101.64679888
_cell_angle_gamma   109.13569034
_symmetry_Int_Tables_number   1
_chemical_formula_structural   Li3VO3F2
_chemical_formula_sum   'Li6 V2 O6 F4'
_cell_volume   179.03331311
_cell_formula_units_Z   2
loop_
 _symmetry_equiv_pos_site_id
 _symmetry_equiv_pos_as_xyz
  1  'x, y, z'
loop_
 _atom_site_type_symbol
 _atom_site_label
 _atom_site_symmetry_multiplicity
 _atom_site_fract_x
 _atom_site_fract_y
 _atom_site_fract_z
 _atom_site_occupancy
  Li  Li0  1  0.186929  0.703425  0.570936  1
  Li  Li1  1  0.055941  0.510626  0.013166  1
  Li  Li2  1  0.440806  0.900562  0.210561  1
  Li  Li3  1  0.391218  0.398487  0.711589  1
  Li  Li4  1  0.570896  0.100101  0.783380  1
  Li  Li5  1  0.800296  0.304948  0.411169  1
  V  V6  1  0.178330  0.191777  0.161398  1
  V  V7  1  0.797844  0.773917  0.868196  1
  O  O8  1  0.151741  0.957914  0.879022  1
  O  O9  1  0.180074  0.413146  0.324037  1
  O  O10  1  0.459614  0.678583  0.935241  1
  O  O11  1  0.398613  0.154656  0.427761  1
  O  O12  1  0.816999  0.576567  0.674739  1
  O  O13  1  0.815646  0.048764  0.136383  1
  F  F14  1  0.586776  0.855307  0.576259  1
  F  F15  1  0.544930  0.316852  0.032480  1
  F  F16  1  0.021432  0.739634  0.209180  1
  F  F17  1  0.994557  0.269790  0.775743  1
