# generated using pymatgen
data_Mn7Cr(PO4)12
_symmetry_space_group_name_H-M   'P 1'
_cell_length_a   8.49689027
_cell_length_b   8.46250869
_cell_length_c   11.80664137
_cell_angle_alpha   90.05509235
_cell_angle_beta   89.96760695
_cell_angle_gamma   90.08703178
_symmetry_Int_Tables_number   1
_chemical_formula_structural   Mn7Cr(PO4)12
_chemical_formula_sum   'Mn7 Cr1 P12 O48'
_cell_volume   848.95513170
_cell_formula_units_Z   1
loop_
 _symmetry_equiv_pos_site_id
 _symmetry_equiv_pos_as_xyz
  1  'x, y, z'
loop_
 _atom_site_type_symbol
 _atom_site_label
 _atom_site_symmetry_multiplicity
 _atom_site_fract_x
 _atom_site_fract_y
 _atom_site_fract_z
 _atom_site_occupancy
  Mn  Mn0  1  0.249742  0.966824  0.618524  1
  Mn  Mn1  1  0.250977  0.534428  0.381258  1
  Mn  Mn2  1  0.249503  0.034574  0.118074  1
  Mn  Mn3  1  0.250554  0.465108  0.882845  1
  Mn  Mn4  1  0.750670  0.534829  0.118625  1
  Mn  Mn5  1  0.750622  0.966188  0.882465  1
  Mn  Mn6  1  0.748752  0.034565  0.382178  1
  Cr  Cr7  1  0.748513  0.467552  0.619243  1
  P  P8  1  0.035390  0.249194  0.499410  1
  P  P9  1  0.464541  0.750129  0.000307  1
  P  P10  1  0.536128  0.250299  0.000376  1
  P  P11  1  0.964876  0.751144  0.499571  1
  P  P12  1  0.105843  0.391692  0.145352  1
  P  P13  1  0.106502  0.108238  0.855241  1
  P  P14  1  0.391943  0.608213  0.645059  1
  P  P15  1  0.393082  0.892243  0.354947  1
  P  P16  1  0.606556  0.107292  0.645192  1
  P  P17  1  0.605835  0.392078  0.355035  1
  P  P18  1  0.894812  0.609774  0.855770  1
  P  P19  1  0.893644  0.891923  0.145384  1
  O  O20  1  0.061517  0.642142  0.423075  1
  O  O21  1  0.059240  0.857551  0.579590  1
  O  O22  1  0.074920  0.900160  0.159538  1
  O  O23  1  0.075207  0.598538  0.839423  1
  O  O24  1  0.143481  0.160803  0.583138  1
  O  O25  1  0.142901  0.342092  0.418231  1
  O  O26  1  0.157506  0.439366  0.026515  1
  O  O27  1  0.159202  0.060212  0.973517  1
  O  O28  1  0.149750  0.221095  0.175649  1
  O  O29  1  0.150946  0.278860  0.824643  1
  O  O30  1  0.180806  0.513520  0.226861  1
  O  O31  1  0.179768  0.986267  0.772940  1
  O  O32  1  0.320476  0.013890  0.272766  1
  O  O33  1  0.320900  0.485821  0.727313  1
  O  O34  1  0.353125  0.779721  0.675526  1
  O  O35  1  0.349501  0.721490  0.323923  1
  O  O36  1  0.342455  0.561903  0.525827  1
  O  O37  1  0.339736  0.940139  0.473254  1
  O  O38  1  0.355048  0.840835  0.082291  1
  O  O39  1  0.354717  0.659033  0.918751  1
  O  O40  1  0.425708  0.102078  0.660196  1
  O  O41  1  0.424631  0.397487  0.343075  1
  O  O42  1  0.439583  0.141513  0.077368  1
  O  O43  1  0.440039  0.358835  0.922905  1
  O  O44  1  0.560983  0.641577  0.077286  1
  O  O45  1  0.560484  0.858731  0.922648  1
  O  O46  1  0.572677  0.591332  0.658011  1
  O  O47  1  0.574148  0.900241  0.341162  1
  O  O48  1  0.645368  0.340656  0.082582  1
  O  O49  1  0.644870  0.160022  0.917846  1
  O  O50  1  0.657777  0.060695  0.526155  1
  O  O51  1  0.660320  0.439084  0.473293  1
  O  O52  1  0.651650  0.222052  0.324807  1
  O  O53  1  0.652965  0.278573  0.672243  1
  O  O54  1  0.679200  0.515030  0.273932  1
  O  O55  1  0.683475  0.988209  0.726810  1
  O  O56  1  0.819661  0.013188  0.227543  1
  O  O57  1  0.823740  0.491653  0.769850  1
  O  O58  1  0.850066  0.721124  0.175713  1
  O  O59  1  0.849084  0.779299  0.824524  1
  O  O60  1  0.840362  0.558269  0.972484  1
  O  O61  1  0.841495  0.939175  0.026892  1
  O  O62  1  0.855664  0.654975  0.577316  1
  O  O63  1  0.852617  0.839754  0.419154  1
  O  O64  1  0.925216  0.100549  0.841710  1
  O  O65  1  0.924872  0.400528  0.160059  1
  O  O66  1  0.939633  0.139524  0.422526  1
  O  O67  1  0.934013  0.356127  0.574286  1
