# generated using pymatgen
data_LiV2(CO3)4
_symmetry_space_group_name_H-M   'P 1'
_cell_length_a   7.50353683
_cell_length_b   7.50353683
_cell_length_c   8.98964817
_cell_angle_alpha   71.43025444
_cell_angle_beta   71.43025444
_cell_angle_gamma   106.13034134
_symmetry_Int_Tables_number   1
_chemical_formula_structural   LiV2(CO3)4
_chemical_formula_sum   'Li2 V4 C8 O24'
_cell_volume   412.32337001
_cell_formula_units_Z   2
loop_
 _symmetry_equiv_pos_site_id
 _symmetry_equiv_pos_as_xyz
  1  'x, y, z'
loop_
 _atom_site_type_symbol
 _atom_site_label
 _atom_site_symmetry_multiplicity
 _atom_site_fract_x
 _atom_site_fract_y
 _atom_site_fract_z
 _atom_site_occupancy
  Li  Li0  1  0.252820  0.750089  0.999368  1
  Li  Li1  1  0.500089  0.502820  0.499368  1
  V  V2  1  0.254819  0.249993  0.999642  1
  V  V3  1  0.499972  0.994901  0.500234  1
  V  V4  1  -0.000007  0.504819  0.499642  1
  V  V5  1  0.744901  0.749972  0.000234  1
  C  C6  1  0.440417  0.303238  0.245730  1
  C  C7  1  0.057282  0.194781  0.756899  1
  C  C8  1  0.443560  0.801390  0.259000  1
  C  C9  1  0.944781  0.307282  0.256899  1
  C  C10  1  0.558104  0.201474  0.738622  1
  C  C11  1  0.053238  0.690417  0.745730  1
  C  C12  1  0.951474  0.808104  0.238622  1
  C  C13  1  0.551390  0.693560  0.759000  1
  O  O14  1  0.111418  0.400333  0.106447  1
  O  O15  1  0.427807  0.292271  0.106267  1
  O  O16  1  0.353092  0.133857  0.386725  1
  O  O17  1  0.150333  0.361418  0.606447  1
  O  O18  1  0.083547  0.218309  0.887586  1
  O  O19  1  0.262287  0.711925  0.269042  1
  O  O20  1  0.770567  0.197715  0.275569  1
  O  O21  1  0.540597  0.479471  0.234943  1
  O  O22  1  0.046888  0.987971  0.222022  1
  O  O23  1  0.525478  0.202952  0.605153  1
  O  O24  1  0.042271  0.677807  0.606267  1
  O  O25  1  0.398207  0.101667  0.895342  1
  O  O26  1  0.605186  0.897167  0.110222  1
  O  O27  1  0.461954  0.786493  0.401186  1
  O  O28  1  0.968309  0.333547  0.387586  1
  O  O29  1  0.461925  0.512287  0.769042  1
  O  O30  1  0.947715  0.020567  0.775569  1
  O  O31  1  0.737971  0.296888  0.722022  1
  O  O32  1  0.229471  0.790597  0.734943  1
  O  O33  1  0.952952  0.775478  0.105153  1
  O  O34  1  0.851667  0.648207  0.395342  1
  O  O35  1  0.647167  0.855186  0.610222  1
  O  O36  1  0.536493  0.711954  0.901186  1
  O  O37  1  0.883857  0.603092  0.886725  1
