# generated using pymatgen
data_Li2TiMn3O8
_symmetry_space_group_name_H-M   'P 1'
_cell_length_a   8.80691436
_cell_length_b   8.24693214
_cell_length_c   8.33361143
_cell_angle_alpha   90.16068603
_cell_angle_beta   90.06513109
_cell_angle_gamma   89.58008989
_symmetry_Int_Tables_number   1
_chemical_formula_structural   Li2TiMn3O8
_chemical_formula_sum   'Li8 Ti4 Mn12 O32'
_cell_volume   605.25139496
_cell_formula_units_Z   4
loop_
 _symmetry_equiv_pos_site_id
 _symmetry_equiv_pos_as_xyz
  1  'x, y, z'
loop_
 _atom_site_type_symbol
 _atom_site_label
 _atom_site_symmetry_multiplicity
 _atom_site_fract_x
 _atom_site_fract_y
 _atom_site_fract_z
 _atom_site_occupancy
  Li  Li0  1  0.999914  0.995763  0.997590  1
  Li  Li1  1  0.250554  0.253947  0.253569  1
  Li  Li2  1  0.254183  0.745193  0.750087  1
  Li  Li3  1  0.491384  0.003588  0.495738  1
  Li  Li4  1  0.504058  0.504651  0.007396  1
  Li  Li5  1  0.751512  0.244174  0.745113  1
  Li  Li6  1  0.756087  0.758048  0.244475  1
  Li  Li7  1  0.993740  0.496446  0.507224  1
  Ti  Ti8  1  0.127127  0.868724  0.376762  1
  Ti  Ti9  1  0.373086  0.134573  0.884466  1
  Ti  Ti10  1  0.627550  0.627157  0.614072  1
  Ti  Ti11  1  0.873253  0.370426  0.118431  1
  Mn  Mn12  1  0.130902  0.124165  0.624393  1
  Mn  Mn13  1  0.118949  0.376019  0.871908  1
  Mn  Mn14  1  0.116843  0.626865  0.126649  1
  Mn  Mn15  1  0.378351  0.373033  0.622372  1
  Mn  Mn16  1  0.377153  0.623369  0.371210  1
  Mn  Mn17  1  0.374275  0.870708  0.124188  1
  Mn  Mn18  1  0.630852  0.372584  0.375129  1
  Mn  Mn19  1  0.626523  0.124785  0.124393  1
  Mn  Mn20  1  0.621589  0.875038  0.875493  1
  Mn  Mn21  1  0.879858  0.126233  0.376819  1
  Mn  Mn22  1  0.878649  0.877465  0.628251  1
  Mn  Mn23  1  0.865053  0.625418  0.877385  1
  O  O24  1  0.125085  0.114601  0.395652  1
  O  O25  1  0.130533  0.890899  0.612699  1
  O  O26  1  0.088860  0.614039  0.880468  1
  O  O27  1  0.144664  0.134136  0.860593  1
  O  O28  1  0.102259  0.390223  0.111374  1
  O  O29  1  0.129862  0.359039  0.641171  1
  O  O30  1  0.123718  0.639285  0.370025  1
  O  O31  1  0.121478  0.859178  0.142513  1
  O  O32  1  0.353560  0.138396  0.635050  1
  O  O33  1  0.378225  0.359787  0.862993  1
  O  O34  1  0.363843  0.635419  0.139663  1
  O  O35  1  0.398291  0.608623  0.611886  1
  O  O36  1  0.356936  0.861406  0.360596  1
  O  O37  1  0.407425  0.386346  0.382085  1
  O  O38  1  0.369173  0.110576  0.106665  1
  O  O39  1  0.400326  0.880278  0.888342  1
  O  O40  1  0.628598  0.386707  0.605464  1
  O  O41  1  0.634446  0.611446  0.389647  1
  O  O42  1  0.623772  0.892035  0.105945  1
  O  O43  1  0.641408  0.362849  0.141199  1
  O  O44  1  0.605162  0.110159  0.883025  1
  O  O45  1  0.632650  0.140319  0.360442  1
  O  O46  1  0.620678  0.860166  0.642279  1
  O  O47  1  0.642864  0.639002  0.865472  1
  O  O48  1  0.854417  0.361791  0.364055  1
  O  O49  1  0.877799  0.143429  0.134247  1
  O  O50  1  0.848449  0.863774  0.863210  1
  O  O51  1  0.894294  0.891615  0.391792  1
  O  O52  1  0.856371  0.639156  0.642410  1
  O  O53  1  0.906361  0.112574  0.620789  1
  O  O54  1  0.864795  0.391640  0.889568  1
  O  O55  1  0.872248  0.612875  0.105708  1
