# generated using pymatgen
data_Li2V(PO4)2
_symmetry_space_group_name_H-M   'P 1'
_cell_length_a   4.84765576
_cell_length_b   4.85394873
_cell_length_c   7.51967097
_cell_angle_alpha   90.06825798
_cell_angle_beta   90.13479471
_cell_angle_gamma   119.68294993
_symmetry_Int_Tables_number   1
_chemical_formula_structural   Li2V(PO4)2
_chemical_formula_sum   'Li2 V1 P2 O8'
_cell_volume   153.72066961
_cell_formula_units_Z   1
loop_
 _symmetry_equiv_pos_site_id
 _symmetry_equiv_pos_as_xyz
  1  'x, y, z'
loop_
 _atom_site_type_symbol
 _atom_site_label
 _atom_site_symmetry_multiplicity
 _atom_site_fract_x
 _atom_site_fract_y
 _atom_site_fract_z
 _atom_site_occupancy
  Li  Li0  1  0.334129  0.671505  0.671843  1
  Li  Li1  1  0.665608  0.328397  0.328081  1
  V  V2  1  0.000031  0.000015  0.000041  1
  P  P3  1  0.334474  0.666273  0.223064  1
  P  P4  1  0.665501  0.333703  0.776970  1
  O  O5  1  0.047459  0.699211  0.150204  1
  O  O6  1  0.331519  0.667395  0.422209  1
  O  O7  1  0.309583  0.352928  0.151549  1
  O  O8  1  0.652715  0.955222  0.154378  1
  O  O9  1  0.347302  0.044960  0.845693  1
  O  O10  1  0.690750  0.647265  0.848470  1
  O  O11  1  0.668122  0.332465  0.577760  1
  O  O12  1  0.952507  0.300663  0.849736  1
