# generated using pymatgen
data_Ti3MnCr(PO4)6
_symmetry_space_group_name_H-M   'P 1'
_cell_length_a   8.62865415
_cell_length_b   8.62865444
_cell_length_c   8.62865426
_cell_angle_alpha   60.21527864
_cell_angle_beta   60.21528084
_cell_angle_gamma   60.21528050
_symmetry_Int_Tables_number   1
_chemical_formula_structural   Ti3MnCr(PO4)6
_chemical_formula_sum   'Ti3 Mn1 Cr1 P6 O24'
_cell_volume   456.48439320
_cell_formula_units_Z   1
loop_
 _symmetry_equiv_pos_site_id
 _symmetry_equiv_pos_as_xyz
  1  'x, y, z'
loop_
 _atom_site_type_symbol
 _atom_site_label
 _atom_site_symmetry_multiplicity
 _atom_site_fract_x
 _atom_site_fract_y
 _atom_site_fract_z
 _atom_site_occupancy
  Ti  Ti0  1  0.134979  0.134979  0.134979  1
  Ti  Ti1  1  0.353732  0.353732  0.353732  1
  Ti  Ti2  1  0.864582  0.864582  0.864582  1
  Mn  Mn3  1  0.500166  0.500166  0.500166  1
  Cr  Cr4  1  0.644362  0.644362  0.644362  1
  P  P5  1  0.040190  0.747331  0.467501  1
  P  P6  1  0.535042  0.956067  0.252771  1
  P  P7  1  0.252771  0.535042  0.956067  1
  P  P8  1  0.747331  0.467501  0.040190  1
  P  P9  1  0.467501  0.040190  0.747331  1
  P  P10  1  0.956067  0.252771  0.535042  1
  O  O11  1  0.063213  0.911606  0.277651  1
  O  O12  1  0.000285  0.800293  0.631823  1
  O  O13  1  0.088849  0.723733  0.938661  1
  O  O14  1  0.497624  0.882022  0.690728  1
  O  O15  1  0.234602  0.581100  0.448171  1
  O  O16  1  0.554148  0.763765  0.419841  1
  O  O17  1  0.723733  0.938661  0.088849  1
  O  O18  1  0.997601  0.200949  0.369779  1
  O  O19  1  0.311193  0.496016  0.119621  1
  O  O20  1  0.200949  0.369779  0.997601  1
  O  O21  1  0.119621  0.311193  0.496016  1
  O  O22  1  0.419841  0.554148  0.763765  1
  O  O23  1  0.581100  0.448171  0.234602  1
  O  O24  1  0.882022  0.690728  0.497624  1
  O  O25  1  0.800293  0.631823  0.000285  1
  O  O26  1  0.690728  0.497624  0.882022  1
  O  O27  1  0.277651  0.063213  0.911606  1
  O  O28  1  0.448171  0.234602  0.581100  1
  O  O29  1  0.763765  0.419841  0.554148  1
  O  O30  1  0.496016  0.119621  0.311193  1
  O  O31  1  0.369779  0.997601  0.200949  1
  O  O32  1  0.631823  0.000285  0.800293  1
  O  O33  1  0.911606  0.277651  0.063213  1
  O  O34  1  0.938661  0.088849  0.723733  1
