# generated using pymatgen
data_Li6Mn3Sn(PO4)6
_symmetry_space_group_name_H-M   'P 1'
_cell_length_a   8.72215517
_cell_length_b   8.63730658
_cell_length_c   8.54765843
_cell_angle_alpha   62.62247398
_cell_angle_beta   61.99499733
_cell_angle_gamma   61.49892000
_symmetry_Int_Tables_number   1
_chemical_formula_structural   Li6Mn3Sn(PO4)6
_chemical_formula_sum   'Li6 Mn3 Sn1 P6 O24'
_cell_volume   476.01066732
_cell_formula_units_Z   1
loop_
 _symmetry_equiv_pos_site_id
 _symmetry_equiv_pos_as_xyz
  1  'x, y, z'
loop_
 _atom_site_type_symbol
 _atom_site_label
 _atom_site_symmetry_multiplicity
 _atom_site_fract_x
 _atom_site_fract_y
 _atom_site_fract_z
 _atom_site_occupancy
  Li  Li0  1  0.024945  0.005674  0.002950  1
  Li  Li1  1  0.750578  0.153098  0.348747  1
  Li  Li2  1  0.486945  0.498477  0.497513  1
  Li  Li3  1  0.290387  0.839771  0.649652  1
  Li  Li4  1  0.644214  0.292829  0.840893  1
  Li  Li5  1  0.839961  0.643747  0.290253  1
  Mn  Mn6  1  0.143562  0.143104  0.142753  1
  Mn  Mn7  1  0.354723  0.358552  0.356924  1
  Mn  Mn8  1  0.649487  0.651126  0.654433  1
  Sn  Sn9  1  0.856027  0.847687  0.853461  1
  P  P10  1  0.749436  0.441170  0.056270  1
  P  P11  1  0.056337  0.741648  0.436635  1
  P  P12  1  0.440206  0.058397  0.751155  1
  P  P13  1  0.246696  0.538317  0.960212  1
  P  P14  1  0.542160  0.964057  0.250583  1
  P  P15  1  0.954264  0.243624  0.536550  1
  O  O16  1  0.119120  0.286370  0.498146  1
  O  O17  1  0.307165  0.507072  0.116754  1
  O  O18  1  0.063234  0.907644  0.258638  1
  O  O19  1  0.529123  0.120921  0.303285  1
  O  O20  1  0.018852  0.798644  0.604856  1
  O  O21  1  0.244917  0.583850  0.426862  1
  O  O22  1  0.258106  0.078508  0.916147  1
  O  O23  1  0.440364  0.240664  0.588587  1
  O  O24  1  0.173571  0.391793  0.001975  1
  O  O25  1  0.605396  0.425030  0.251751  1
  O  O26  1  0.090424  0.739465  0.935574  1
  O  O27  1  0.380807  0.014922  0.192970  1
  O  O28  1  0.608405  0.012360  0.806352  1
  O  O29  1  0.905683  0.250381  0.072828  1
  O  O30  1  0.402781  0.555638  0.768280  1
  O  O31  1  0.808998  0.604740  0.014922  1
  O  O32  1  0.559204  0.775544  0.406630  1
  O  O33  1  0.735299  0.934867  0.089935  1
  O  O34  1  0.766341  0.403008  0.559119  1
  O  O35  1  0.975892  0.180788  0.381476  1
  O  O36  1  0.459519  0.903147  0.695718  1
  O  O37  1  0.930743  0.086241  0.732640  1
  O  O38  1  0.685227  0.470658  0.903065  1
  O  O39  1  0.900899  0.683466  0.467509  1
