# generated using pymatgen
data_LiNi(SO4)2
_symmetry_space_group_name_H-M   'P 1'
_cell_length_a   9.02793304
_cell_length_b   8.98515314
_cell_length_c   9.03036807
_cell_angle_alpha   55.94757750
_cell_angle_beta   55.84087027
_cell_angle_gamma   55.75874129
_symmetry_Int_Tables_number   1
_chemical_formula_structural   LiNi(SO4)2
_chemical_formula_sum   'Li3 Ni3 S6 O24'
_cell_volume   468.12239486
_cell_formula_units_Z   3
loop_
 _symmetry_equiv_pos_site_id
 _symmetry_equiv_pos_as_xyz
  1  'x, y, z'
loop_
 _atom_site_type_symbol
 _atom_site_label
 _atom_site_symmetry_multiplicity
 _atom_site_fract_x
 _atom_site_fract_y
 _atom_site_fract_z
 _atom_site_occupancy
  Li  Li0  1  0.161635  0.132256  0.153598  1
  Li  Li1  1  0.180966  0.415582  0.771559  1
  Li  Li2  1  0.772463  0.179668  0.417856  1
  Ni  Ni3  1  0.355072  0.356374  0.351910  1
  Ni  Ni4  1  0.641478  0.644320  0.645519  1
  Ni  Ni5  1  0.847337  0.849978  0.849802  1
  S  S6  1  0.037470  0.744541  0.466210  1
  S  S7  1  0.463623  0.040412  0.746441  1
  S  S8  1  0.748336  0.467802  0.036273  1
  S  S9  1  0.247260  0.549634  0.956000  1
  S  S10  1  0.545872  0.956662  0.248834  1
  S  S11  1  0.956460  0.246948  0.549516  1
  O  O12  1  0.105322  0.296982  0.514762  1
  O  O13  1  0.298679  0.513091  0.104356  1
  O  O14  1  0.001526  0.950872  0.348127  1
  O  O15  1  0.522917  0.104251  0.296031  1
  O  O16  1  0.028225  0.702983  0.658974  1
  O  O17  1  0.233453  0.620089  0.379661  1
  O  O18  1  0.378154  0.242455  0.619488  1
  O  O19  1  0.340784  0.012934  0.947002  1
  O  O20  1  0.630822  0.372950  0.236564  1
  O  O21  1  0.043524  0.683592  0.986593  1
  O  O22  1  0.268389  0.369020  0.961425  1
  O  O23  1  0.358822  0.973598  0.278661  1
  O  O24  1  0.657576  0.028232  0.703948  1
  O  O25  1  0.713434  0.655671  0.027298  1
  O  O26  1  0.954489  0.342701  0.000592  1
  O  O27  1  0.374217  0.634723  0.760183  1
  O  O28  1  0.676499  0.987794  0.044802  1
  O  O29  1  0.631023  0.759605  0.375369  1
  O  O30  1  0.759408  0.374809  0.634522  1
  O  O31  1  0.962359  0.269474  0.369070  1
  O  O32  1  0.488895  0.901297  0.688240  1
  O  O33  1  0.985296  0.043216  0.682824  1
  O  O34  1  0.688364  0.494077  0.899092  1
  O  O35  1  0.893248  0.691611  0.494101  1
