# generated using pymatgen
data_Li10Fe3Ni7O20
_symmetry_space_group_name_H-M   'P 1'
_cell_length_a   5.16103051
_cell_length_b   2.84887384
_cell_length_c   24.04624637
_cell_angle_alpha   89.99999880
_cell_angle_beta   91.95645515
_cell_angle_gamma   90.00000051
_symmetry_Int_Tables_number   1
_chemical_formula_structural   Li10Fe3Ni7O20
_chemical_formula_sum   'Li10 Fe3 Ni7 O20'
_cell_volume   353.34886068
_cell_formula_units_Z   1
loop_
 _symmetry_equiv_pos_site_id
 _symmetry_equiv_pos_as_xyz
  1  'x, y, z'
loop_
 _atom_site_type_symbol
 _atom_site_label
 _atom_site_symmetry_multiplicity
 _atom_site_fract_x
 _atom_site_fract_y
 _atom_site_fract_z
 _atom_site_occupancy
  Li  Li0  1  0.297163  1.000000  0.900420  1
  Li  Li1  1  0.902837  0.000000  0.699580  1
  Li  Li2  1  0.100000  0.500000  0.800000  1
  Li  Li3  1  0.704329  0.500000  0.599288  1
  Li  Li4  1  0.501716  1.000000  0.499246  1
  Li  Li5  1  0.302259  0.500000  0.399348  1
  Li  Li6  1  0.100000  0.000000  0.300000  1
  Li  Li7  1  0.897741  0.500000  0.200652  1
  Li  Li8  1  0.698284  0.000000  0.100754  1
  Li  Li9  1  0.495671  0.500000  0.000712  1
  Fe  Fe10  1  0.791376  0.500000  0.902976  1
  Fe  Fe11  1  0.600000  0.000000  0.800000  1
  Fe  Fe12  1  0.408624  0.500000  0.697024  1
  Ni  Ni13  1  0.201487  1.000000  0.597630  1
  Ni  Ni14  1  0.999509  0.500000  0.498561  1
  Ni  Ni15  1  0.802227  1.000000  0.399192  1
  Ni  Ni16  1  0.600000  0.500000  0.300000  1
  Ni  Ni17  1  0.397773  0.000000  0.200808  1
  Ni  Ni18  1  0.200491  0.500000  0.101439  1
  Ni  Ni19  1  0.998513  0.000000  0.002370  1
  O  O20  1  0.649499  0.000000  0.950719  1
  O  O21  1  0.931444  1.000000  0.852263  1
  O  O22  1  0.121450  0.500000  0.956122  1
  O  O23  1  0.460163  0.500000  0.849888  1
  O  O24  1  0.268556  0.000000  0.747737  1
  O  O25  1  0.739837  0.500000  0.750112  1
  O  O26  1  0.550501  1.000000  0.649281  1
  O  O27  1  0.863800  1.000000  0.543080  1
  O  O28  1  0.078550  0.500000  0.643878  1
  O  O29  1  0.329653  0.500000  0.553232  1
  O  O30  1  0.136934  0.000000  0.454322  1
  O  O31  1  0.665095  0.500000  0.442883  1
  O  O32  1  0.937671  0.500000  0.355387  1
  O  O33  1  0.466605  1.000000  0.344045  1
  O  O34  1  0.733395  0.000000  0.255955  1
  O  O35  1  0.262329  0.500000  0.244613  1
  O  O36  1  0.063066  0.000000  0.145678  1
  O  O37  1  0.534905  0.500000  0.157117  1
  O  O38  1  0.870347  0.500000  0.046768  1
  O  O39  1  0.336200  0.000000  0.056920  1
