# generated using pymatgen
data_Mn3(PO4)4
_symmetry_space_group_name_H-M   'P 1'
_cell_length_a   8.24182429
_cell_length_b   13.37007993
_cell_length_c   5.92825032
_cell_angle_alpha   90.00000000
_cell_angle_beta   99.08842386
_cell_angle_gamma   90.00000000
_symmetry_Int_Tables_number   1
_chemical_formula_structural   Mn3(PO4)4
_chemical_formula_sum   'Mn6 P8 O32'
_cell_volume   645.05556987
_cell_formula_units_Z   2
loop_
 _symmetry_equiv_pos_site_id
 _symmetry_equiv_pos_as_xyz
  1  'x, y, z'
loop_
 _atom_site_type_symbol
 _atom_site_label
 _atom_site_symmetry_multiplicity
 _atom_site_fract_x
 _atom_site_fract_y
 _atom_site_fract_z
 _atom_site_occupancy
  Mn  Mn0  1  0.286279  0.562607  0.191470  1
  Mn  Mn1  1  0.713721  0.062607  0.308530  1
  Mn  Mn2  1  0.685573  0.794395  0.872025  1
  Mn  Mn3  1  0.726080  0.429310  0.847966  1
  Mn  Mn4  1  0.273920  0.929310  0.652034  1
  Mn  Mn5  1  0.314427  0.294395  0.627975  1
  P  P6  1  0.089723  0.121818  0.355057  1
  P  P7  1  0.427685  0.596770  0.730410  1
  P  P8  1  0.886907  0.872765  0.620672  1
  P  P9  1  0.572315  0.096770  0.769590  1
  P  P10  1  0.581929  0.408937  0.326666  1
  P  P11  1  0.910277  0.621818  0.144943  1
  P  P12  1  0.113093  0.372765  0.879328  1
  P  P13  1  0.418071  0.908937  0.173334  1
  O  O14  1  0.341835  0.869037  0.378149  1
  O  O15  1  0.830529  0.942655  0.415065  1
  O  O16  1  0.495383  0.012975  0.244709  1
  O  O17  1  0.691577  0.113228  0.595613  1
  O  O18  1  0.847102  0.553638  0.942688  1
  O  O19  1  0.658165  0.369037  0.121851  1
  O  O20  1  0.108016  0.078262  0.122184  1
  O  O21  1  0.511933  0.493991  0.769594  1
  O  O22  1  0.488067  0.993991  0.730406  1
  O  O23  1  0.459149  0.187713  0.757079  1
  O  O24  1  0.504618  0.512975  0.255291  1
  O  O25  1  0.540851  0.687713  0.742921  1
  O  O26  1  0.906056  0.147134  0.354551  1
  O  O27  1  0.069737  0.850228  0.621010  1
  O  O28  1  0.454962  0.337215  0.401457  1
  O  O29  1  0.833926  0.909617  0.850121  1
  O  O30  1  0.169471  0.442655  0.084935  1
  O  O31  1  0.214305  0.272663  0.897720  1
  O  O32  1  0.310873  0.602526  0.497450  1
  O  O33  1  0.152898  0.053638  0.557312  1
  O  O34  1  0.891984  0.578262  0.377816  1
  O  O35  1  0.930263  0.350228  0.878990  1
  O  O36  1  0.093944  0.647134  0.145449  1
  O  O37  1  0.185559  0.222046  0.374502  1
  O  O38  1  0.785695  0.772663  0.602280  1
  O  O39  1  0.545038  0.837215  0.098543  1
  O  O40  1  0.728485  0.420022  0.525592  1
  O  O41  1  0.689127  0.102526  0.002550  1
  O  O42  1  0.308423  0.613228  0.904387  1
  O  O43  1  0.166074  0.409617  0.649879  1
  O  O44  1  0.271515  0.920022  0.974408  1
  O  O45  1  0.814441  0.722046  0.125498  1
