# generated using pymatgen
data_Li3SbS4
_symmetry_space_group_name_H-M   'P 1'
_cell_length_a   8.00725238
_cell_length_b   7.39098785
_cell_length_c   10.10937787
_cell_angle_alpha   136.80668367
_cell_angle_beta   113.33028217
_cell_angle_gamma   57.20122761
_symmetry_Int_Tables_number   1
_chemical_formula_structural   Li3SbS4
_chemical_formula_sum   'Li6 Sb2 S8'
_cell_volume   344.22082005
_cell_formula_units_Z   2
loop_
 _symmetry_equiv_pos_site_id
 _symmetry_equiv_pos_as_xyz
  1  'x, y, z'
loop_
 _atom_site_type_symbol
 _atom_site_label
 _atom_site_symmetry_multiplicity
 _atom_site_fract_x
 _atom_site_fract_y
 _atom_site_fract_z
 _atom_site_occupancy
  Li  Li0  1  0.910590  0.057903  0.627880  1
  Li  Li1  1  0.659387  0.557903  0.127880  1
  Li  Li2  1  0.430519  0.587643  0.682395  1
  Li  Li3  1  0.315615  0.455443  0.887781  1
  Li  Li4  1  0.664233  0.087643  0.182395  1
  Li  Li5  1  0.116723  0.955443  0.387781  1
  Sb  Sb6  1  0.826251  0.749422  0.712160  1
  Sb  Sb7  1  0.136487  0.249422  0.212160  1
  S  S8  1  0.014110  0.672255  0.049325  1
  S  S9  1  0.654307  0.858969  0.483353  1
  S  S10  1  0.223556  0.658539  0.457095  1
  S  S11  1  0.439403  0.833119  0.032407  1
  S  S12  1  0.574999  0.158539  0.957095  1
  S  S13  1  0.759885  0.333119  0.532407  1
  S  S14  1  0.362960  0.172255  0.549325  1
  S  S15  1  0.970077  0.358969  0.983353  1
