# generated using pymatgen
data_LiCoPO4
_symmetry_space_group_name_H-M   'P 1'
_cell_length_a   9.89762170
_cell_length_b   9.89762120
_cell_length_c   23.91032325
_cell_angle_alpha   90.00000000
_cell_angle_beta   90.00000000
_cell_angle_gamma   119.99999790
_symmetry_Int_Tables_number   1
_chemical_formula_structural   LiCoPO4
_chemical_formula_sum   'Li24 Co24 P24 O96'
_cell_volume   2028.51287045
_cell_formula_units_Z   24
loop_
 _symmetry_equiv_pos_site_id
 _symmetry_equiv_pos_as_xyz
  1  'x, y, z'
loop_
 _atom_site_type_symbol
 _atom_site_label
 _atom_site_symmetry_multiplicity
 _atom_site_fract_x
 _atom_site_fract_y
 _atom_site_fract_z
 _atom_site_occupancy
  Li  Li0  1  0.023111  0.976067  0.695317  1
  Li  Li1  1  0.034127  0.587754  0.033739  1
  Li  Li2  1  0.051918  0.459515  0.193397  1
  Li  Li3  1  0.039569  0.477644  0.849663  1
  Li  Li4  1  0.407598  0.948082  0.860065  1
  Li  Li5  1  0.438075  0.960431  0.516329  1
  Li  Li6  1  0.023933  0.047044  0.028650  1
  Li  Li7  1  0.047044  0.023111  0.861983  1
  Li  Li8  1  0.553628  0.965873  0.700406  1
  Li  Li9  1  0.412246  0.446372  0.367073  1
  Li  Li10  1  0.522355  0.561925  0.182996  1
  Li  Li11  1  0.540485  0.592402  0.526730  1
  Li  Li12  1  0.459515  0.407598  0.026731  1
  Li  Li13  1  0.477644  0.438075  0.682996  1
  Li  Li14  1  0.587754  0.553628  0.867073  1
  Li  Li15  1  0.446372  0.034127  0.200406  1
  Li  Li16  1  0.952956  0.976889  0.361983  1
  Li  Li17  1  0.976067  0.952956  0.528650  1
  Li  Li18  1  0.561925  0.039569  0.016329  1
  Li  Li19  1  0.592402  0.051918  0.360065  1
  Li  Li20  1  0.960431  0.522355  0.349663  1
  Li  Li21  1  0.948082  0.540485  0.693397  1
  Li  Li22  1  0.965873  0.412246  0.533739  1
  Li  Li23  1  0.976889  0.023933  0.195317  1
  Co  Co24  1  0.101241  0.819967  0.269892  1
  Co  Co25  1  0.085659  0.764863  0.919824  1
  Co  Co26  1  0.124704  0.754631  0.593467  1
  Co  Co27  1  0.310590  0.667677  0.756653  1
  Co  Co28  1  0.332323  0.642912  0.089986  1
  Co  Co29  1  0.357088  0.689410  0.423320  1
  Co  Co30  1  0.180033  0.281274  0.603226  1
  Co  Co31  1  0.245369  0.370073  0.926800  1
  Co  Co32  1  0.235137  0.320796  0.253158  1
  Co  Co33  1  0.629927  0.875296  0.260134  1
  Co  Co34  1  0.679204  0.914341  0.586491  1
  Co  Co35  1  0.281274  0.101241  0.436559  1
  Co  Co36  1  0.718726  0.898759  0.936559  1
  Co  Co37  1  0.320796  0.085659  0.086491  1
  Co  Co38  1  0.370073  0.124704  0.760134  1
  Co  Co39  1  0.764863  0.679204  0.753158  1
  Co  Co40  1  0.754631  0.629927  0.426800  1
  Co  Co41  1  0.819967  0.718726  0.103226  1
  Co  Co42  1  0.642912  0.310590  0.923320  1
  Co  Co43  1  0.667677  0.357088  0.589986  1
  Co  Co44  1  0.689410  0.332323  0.256653  1
  Co  Co45  1  0.875296  0.245369  0.093467  1
  Co  Co46  1  0.914341  0.235137  0.419824  1
  Co  Co47  1  0.898759  0.180033  0.769892  1
  P  P48  1  0.092715  0.789960  0.790543  1
  P  P49  1  0.082120  0.755454  0.466533  1
  P  P50  1  0.132151  0.771823  0.139763  1
  P  P51  1  0.285777  0.647315  0.295797  1
  P  P52  1  0.361538  0.714223  0.962464  1
  P  P53  1  0.352685  0.638462  0.629131  1
  P  P54  1  0.228177  0.360327  0.473096  1
  P  P55  1  0.210040  0.302754  0.123876  1
  P  P56  1  0.244546  0.326667  0.799866  1
  P  P57  1  0.639673  0.867849  0.806430  1
  P  P58  1  0.673333  0.917880  0.133199  1
  P  P59  1  0.697246  0.907285  0.457210  1
  P  P60  1  0.302754  0.092715  0.957210  1
  P  P61  1  0.326667  0.082120  0.633199  1
  P  P62  1  0.360327  0.132151  0.306430  1
  P  P63  1  0.755454  0.673333  0.299866  1
  P  P64  1  0.789960  0.697246  0.623876  1
  P  P65  1  0.771823  0.639673  0.973096  1
  P  P66  1  0.647315  0.361538  0.129131  1
  P  P67  1  0.638462  0.285777  0.462464  1
  P  P68  1  0.714223  0.352685  0.795797  1
  P  P69  1  0.867849  0.228177  0.639763  1
  P  P70  1  0.917880  0.244546  0.966533  1
  P  P71  1  0.907285  0.210040  0.290543  1
  O  O72  1  0.037453  0.765992  0.086859  1
  O  O73  1  0.092120  0.918016  0.471323  1
  O  O74  1  0.015654  0.688053  0.843002  1
  O  O75  1  0.139564  0.984495  0.930005  1
  O  O76  1  0.034616  0.762599  0.191356  1
  O  O77  1  0.015450  0.664600  0.521875  1
  O  O78  1  0.241876  0.941828  0.809565  1
  O  O79  1  0.137852  0.661279  0.305110  1
  O  O80  1  0.122644  0.690526  0.747752  1
  O  O81  1  0.309776  0.969835  0.584520  1
  O  O82  1  0.295557  0.924046  0.139178  1
  O  O83  1  0.161711  0.631460  0.138039  1
  O  O84  1  0.251792  0.789762  0.457188  1
  O  O85  1  0.187002  0.604920  0.613587  1
  O  O86  1  0.075954  0.371511  0.472511  1
  O  O87  1  0.272646  0.742346  0.914202  1
  O  O88  1  0.030165  0.339941  0.917854  1
  O  O89  1  0.058172  0.300048  0.142898  1
  O  O90  1  0.015505  0.155071  0.263338  1
  O  O91  1  0.081984  0.174103  0.804656  1
  O  O92  1  0.263061  0.677030  0.016801  1
  O  O93  1  0.257654  0.530301  0.247535  1
  O  O94  1  0.322970  0.586031  0.350134  1
  O  O95  1  0.210238  0.462030  0.790521  1
  O  O96  1  0.413969  0.736939  0.683468  1
  O  O97  1  0.417919  0.812998  0.280253  1
  O  O98  1  0.469749  0.838289  0.804705  1
  O  O99  1  0.309474  0.432117  0.081085  1
  O  O100  1  0.338721  0.476573  0.638443  1
  O  O101  1  0.368540  0.530251  0.471372  1
  O  O102  1  0.237401  0.272017  0.524690  1
  O  O103  1  0.395080  0.582081  0.946920  1
  O  O104  1  0.469699  0.727354  0.580868  1
  O  O105  1  0.523427  0.862148  0.971776  1
  O  O106  1  0.567883  0.877356  0.414418  1
  O  O107  1  0.155071  0.139564  0.096671  1
  O  O108  1  0.234008  0.271462  0.420193  1
  O  O109  1  0.311947  0.327601  0.176336  1
  O  O110  1  0.174103  0.092120  0.637989  1
  O  O111  1  0.335400  0.350850  0.855208  1
  O  O112  1  0.537970  0.748208  0.123855  1
  O  O113  1  0.300048  0.241876  0.976231  1
  O  O114  1  0.649150  0.984550  0.188541  1
  O  O115  1  0.339941  0.309776  0.751187  1
  O  O116  1  0.371511  0.295557  0.305845  1
  O  O117  1  0.672399  0.984346  0.509669  1
  O  O118  1  0.727983  0.965384  0.858023  1
  O  O119  1  0.271462  0.037453  0.253526  1
  O  O120  1  0.728538  0.962547  0.753526  1
  O  O121  1  0.272017  0.034616  0.358023  1
  O  O122  1  0.327601  0.015654  0.009669  1
  O  O123  1  0.628489  0.704443  0.805845  1
  O  O124  1  0.660059  0.690224  0.251187  1
  O  O125  1  0.350850  0.015450  0.688541  1
  O  O126  1  0.699952  0.758124  0.476231  1
  O  O127  1  0.462030  0.251792  0.623855  1
  O  O128  1  0.664600  0.649150  0.355208  1
  O  O129  1  0.825897  0.907880  0.137989  1
  O  O130  1  0.688053  0.672399  0.676336  1
  O  O131  1  0.765992  0.728538  0.920193  1
  O  O132  1  0.844929  0.860436  0.596671  1
  O  O133  1  0.432117  0.122644  0.914418  1
  O  O134  1  0.476573  0.137852  0.471776  1
  O  O135  1  0.530301  0.272646  0.080868  1
  O  O136  1  0.604920  0.417919  0.446920  1
  O  O137  1  0.762599  0.727983  0.024690  1
  O  O138  1  0.631460  0.469749  0.971372  1
  O  O139  1  0.661279  0.523427  0.138443  1
  O  O140  1  0.690526  0.567883  0.581085  1
  O  O141  1  0.530251  0.161711  0.304705  1
  O  O142  1  0.582081  0.187002  0.780253  1
  O  O143  1  0.586031  0.263061  0.183468  1
  O  O144  1  0.789762  0.537970  0.290521  1
  O  O145  1  0.677030  0.413969  0.850134  1
  O  O146  1  0.742346  0.469699  0.747535  1
  O  O147  1  0.736939  0.322970  0.516801  1
  O  O148  1  0.918016  0.825897  0.304656  1
  O  O149  1  0.984495  0.844929  0.763338  1
  O  O150  1  0.941828  0.699952  0.642898  1
  O  O151  1  0.969835  0.660059  0.417854  1
  O  O152  1  0.727354  0.257654  0.414202  1
  O  O153  1  0.924046  0.628489  0.972511  1
  O  O154  1  0.812998  0.395080  0.113587  1
  O  O155  1  0.748208  0.210238  0.957188  1
  O  O156  1  0.838289  0.368540  0.638039  1
  O  O157  1  0.704443  0.075954  0.639178  1
  O  O158  1  0.690224  0.030165  0.084520  1
  O  O159  1  0.877356  0.309474  0.247752  1
  O  O160  1  0.862148  0.338721  0.805110  1
  O  O161  1  0.758124  0.058172  0.309565  1
  O  O162  1  0.984550  0.335400  0.021875  1
  O  O163  1  0.965384  0.237401  0.691356  1
  O  O164  1  0.860436  0.015505  0.430005  1
  O  O165  1  0.984346  0.311947  0.343002  1
  O  O166  1  0.907880  0.081984  0.971323  1
  O  O167  1  0.962547  0.234008  0.586859  1
