# generated using pymatgen
data_Li4Mn3Ni3(TeO8)2
_symmetry_space_group_name_H-M   'P 1'
_cell_length_a   5.95015767
_cell_length_b   5.95653745
_cell_length_c   9.71242737
_cell_angle_alpha   89.99922830
_cell_angle_beta   91.03037743
_cell_angle_gamma   120.03611998
_symmetry_Int_Tables_number   1
_chemical_formula_structural   Li4Mn3Ni3(TeO8)2
_chemical_formula_sum   'Li4 Mn3 Ni3 Te2 O16'
_cell_volume   297.94008536
_cell_formula_units_Z   1
loop_
 _symmetry_equiv_pos_site_id
 _symmetry_equiv_pos_as_xyz
  1  'x, y, z'
loop_
 _atom_site_type_symbol
 _atom_site_label
 _atom_site_symmetry_multiplicity
 _atom_site_fract_x
 _atom_site_fract_y
 _atom_site_fract_z
 _atom_site_occupancy
  Li  Li0  1  0.324153  0.662080  0.906878  1
  Li  Li1  1  0.998353  0.999183  0.982286  1
  Li  Li2  1  0.998562  0.999283  0.487890  1
  Li  Li3  1  0.659963  0.330000  0.414785  1
  Mn  Mn4  1  0.168405  0.829965  0.211555  1
  Mn  Mn5  1  0.168393  0.338470  0.211557  1
  Mn  Mn6  1  0.346772  0.173388  0.713476  1
  Ni  Ni7  1  0.655500  0.827760  0.214246  1
  Ni  Ni8  1  0.831767  0.661004  0.711753  1
  Ni  Ni9  1  0.831786  0.170805  0.711752  1
  Te  Te10  1  0.340423  0.670222  0.485745  1
  Te  Te11  1  0.673978  0.336999  0.981829  1
  O  O12  1  0.184054  0.841488  0.595230  1
  O  O13  1  0.030696  0.515363  0.363708  1
  O  O14  1  0.310273  0.655155  0.113250  1
  O  O15  1  0.015478  0.007747  0.297079  1
  O  O16  1  0.020271  0.010144  0.797202  1
  O  O17  1  0.184057  0.342579  0.595230  1
  O  O18  1  0.475372  0.961053  0.351049  1
  O  O19  1  0.475353  0.514331  0.351048  1
  O  O20  1  0.354339  0.177186  0.086758  1
  O  O21  1  0.666461  0.833245  0.585739  1
  O  O22  1  0.506653  0.470425  0.846861  1
  O  O23  1  0.506655  0.036243  0.846869  1
  O  O24  1  0.650021  0.325019  0.611476  1
  O  O25  1  0.830845  0.662759  0.088753  1
  O  O26  1  0.960565  0.480297  0.855082  1
  O  O27  1  0.830851  0.168108  0.088753  1
