# generated using pymatgen
data_LiLa8V8O32
_symmetry_space_group_name_H-M   'P 1'
_cell_length_a   7.19310226
_cell_length_b   7.37184821
_cell_length_c   13.75985504
_cell_angle_alpha   88.58314393
_cell_angle_beta   106.04496934
_cell_angle_gamma   91.84071141
_symmetry_Int_Tables_number   1
_chemical_formula_structural   LiLa8V8O32
_chemical_formula_sum   'Li1 La8 V8 O32'
_cell_volume   700.75620093
_cell_formula_units_Z   1
loop_
 _symmetry_equiv_pos_site_id
 _symmetry_equiv_pos_as_xyz
  1  'x, y, z'
loop_
 _atom_site_type_symbol
 _atom_site_label
 _atom_site_symmetry_multiplicity
 _atom_site_fract_x
 _atom_site_fract_y
 _atom_site_fract_z
 _atom_site_occupancy
  Li  Li0  1  0.857131  0.697926  0.862403  1
  La  La1  1  0.220797  0.654465  0.703610  1
  La  La2  1  0.275483  0.155403  0.548127  1
  La  La3  1  0.219887  0.655016  0.198327  1
  La  La4  1  0.271411  0.161088  0.049436  1
  La  La5  1  0.698475  0.881154  0.972487  1
  La  La6  1  0.785903  0.326634  0.796441  1
  La  La7  1  0.716379  0.844975  0.452110  1
  La  La8  1  0.779746  0.346055  0.300236  1
  V  V9  1  0.220042  0.661780  0.946559  1
  V  V10  1  0.294488  0.165994  0.805227  1
  V  V11  1  0.195388  0.666001  0.442739  1
  V  V12  1  0.298505  0.163414  0.306575  1
  V  V13  1  0.694298  0.835394  0.689083  1
  V  V14  1  0.798691  0.332296  0.555691  1
  V  V15  1  0.696117  0.836518  0.203289  1
  V  V16  1  0.802665  0.354021  0.054775  1
  O  O17  1  0.042242  0.581562  0.829220  1
  O  O18  1  0.110417  0.210308  0.860998  1
  O  O19  1  0.014484  0.602731  0.336296  1
  O  O20  1  0.109671  0.844689  0.498847  1
  O  O21  1  0.246618  0.999647  0.711977  1
  O  O22  1  0.117581  0.220490  0.362342  1
  O  O23  1  0.398718  0.730522  0.883411  1
  O  O24  1  0.250542  0.496939  0.537457  1
  O  O25  1  0.380780  0.348015  0.747031  1
  O  O26  1  0.476541  0.121494  0.916052  1
  O  O27  1  0.085294  0.835710  0.990504  1
  O  O28  1  0.240837  0.998345  0.211719  1
  O  O29  1  0.379604  0.721601  0.386371  1
  O  O30  1  0.508928  0.894883  0.585027  1
  O  O31  1  0.260395  0.492930  0.048329  1
  O  O32  1  0.626656  0.638708  0.743846  1
  O  O33  1  0.388322  0.344680  0.248252  1
  O  O34  1  0.760929  0.523597  0.958384  1
  O  O35  1  0.481278  0.104571  0.412855  1
  O  O36  1  0.618055  0.270713  0.615028  1
  O  O37  1  0.755193  0.983499  0.793477  1
  O  O38  1  0.886296  0.172301  0.999276  1
  O  O39  1  0.509358  0.896754  0.097034  1
  O  O40  1  0.610959  0.651402  0.259381  1
  O  O41  1  0.746295  0.502422  0.461986  1
  O  O42  1  0.620753  0.286711  0.110067  1
  O  O43  1  0.878408  0.789368  0.634311  1
  O  O44  1  0.753074  0.003580  0.294881  1
  O  O45  1  0.888194  0.156071  0.500740  1
  O  O46  1  0.979477  0.394839  0.661621  1
  O  O47  1  0.874826  0.789921  0.144885  1
  O  O48  1  0.979961  0.406154  0.164322  1
