# generated using pymatgen
data_Li4V2SiGeO10
_symmetry_space_group_name_H-M   'P 1'
_cell_length_a   6.50582511
_cell_length_b   6.50582511
_cell_length_c   4.57095652
_cell_angle_alpha   90.00000000
_cell_angle_beta   90.00000000
_cell_angle_gamma   90.00000000
_symmetry_Int_Tables_number   1
_chemical_formula_structural   Li4V2SiGeO10
_chemical_formula_sum   'Li4 V2 Si1 Ge1 O10'
_cell_volume   193.46921029
_cell_formula_units_Z   1
loop_
 _symmetry_equiv_pos_site_id
 _symmetry_equiv_pos_as_xyz
  1  'x, y, z'
loop_
 _atom_site_type_symbol
 _atom_site_label
 _atom_site_symmetry_multiplicity
 _atom_site_fract_x
 _atom_site_fract_y
 _atom_site_fract_z
 _atom_site_occupancy
  Li  Li0  1  0.004364  0.995636  0.000000  1
  Li  Li1  1  0.004364  0.504364  0.000000  1
  Li  Li2  1  0.495636  0.995636  0.000000  1
  Li  Li3  1  0.495636  0.504364  0.000000  1
  V  V4  1  0.250000  0.250000  0.590277  1
  V  V5  1  0.750000  0.750000  0.409723  1
  Si  Si6  1  0.250000  0.750000  0.500000  1
  Ge  Ge7  1  0.750000  0.250000  0.500000  1
  O  O8  1  0.045985  0.750000  0.285177  1
  O  O9  1  0.250000  0.250000  0.223339  1
  O  O10  1  0.250000  0.545985  0.714823  1
  O  O11  1  0.250000  0.954015  0.714823  1
  O  O12  1  0.454015  0.750000  0.285177  1
  O  O13  1  0.535205  0.250000  0.736560  1
  O  O14  1  0.750000  0.035205  0.263440  1
  O  O15  1  0.750000  0.464795  0.263440  1
  O  O16  1  0.750000  0.750000  0.776661  1
  O  O17  1  0.964795  0.250000  0.736560  1
