# generated using pymatgen
data_VOF3
_symmetry_space_group_name_H-M   'P 1'
_cell_length_a   5.59420962
_cell_length_b   5.31312997
_cell_length_c   5.49012027
_cell_angle_alpha   90.00000000
_cell_angle_beta   119.76681879
_cell_angle_gamma   90.00000000
_symmetry_Int_Tables_number   1
_chemical_formula_structural   VOF3
_chemical_formula_sum   'V2 O2 F6'
_cell_volume   141.65024628
_cell_formula_units_Z   2
loop_
 _symmetry_equiv_pos_site_id
 _symmetry_equiv_pos_as_xyz
  1  'x, y, z'
loop_
 _atom_site_type_symbol
 _atom_site_label
 _atom_site_symmetry_multiplicity
 _atom_site_fract_x
 _atom_site_fract_y
 _atom_site_fract_z
 _atom_site_occupancy
  V  V0  1  0.937838  0.021896  0.992405  1
  V  V1  1  0.437838  0.478104  0.992405  1
  O  O2  1  0.177227  0.292277  0.927787  1
  O  O3  1  0.677227  0.207723  0.927787  1
  F  F4  1  0.337549  0.774275  0.077041  1
  F  F5  1  0.181957  0.085379  0.347403  1
  F  F6  1  0.837549  0.725725  0.077041  1
  F  F7  1  0.365430  0.580699  0.655363  1
  F  F8  1  0.681957  0.414621  0.347403  1
  F  F9  1  0.865430  0.919301  0.655363  1
