# generated using pymatgen
data_Mn2P2O7F2
_symmetry_space_group_name_H-M   'P 1'
_cell_length_a   11.12071772
_cell_length_b   6.75384756
_cell_length_c   10.02321671
_cell_angle_alpha   90.00000000
_cell_angle_beta   90.00000000
_cell_angle_gamma   90.00000000
_symmetry_Int_Tables_number   1
_chemical_formula_structural   Mn2P2O7F2
_chemical_formula_sum   'Mn8 P8 O28 F8'
_cell_volume   752.82007450
_cell_formula_units_Z   4
loop_
 _symmetry_equiv_pos_site_id
 _symmetry_equiv_pos_as_xyz
  1  'x, y, z'
loop_
 _atom_site_type_symbol
 _atom_site_label
 _atom_site_symmetry_multiplicity
 _atom_site_fract_x
 _atom_site_fract_y
 _atom_site_fract_z
 _atom_site_occupancy
  Mn  Mn0  1  0.000000  0.000000  0.000000  1
  Mn  Mn1  1  0.000000  0.000000  0.500000  1
  Mn  Mn2  1  0.174446  0.000000  0.250000  1
  Mn  Mn3  1  0.325554  0.500000  0.750000  1
  Mn  Mn4  1  0.500000  0.500000  0.500000  1
  Mn  Mn5  1  0.500000  0.500000  0.000000  1
  Mn  Mn6  1  0.674446  0.500000  0.250000  1
  Mn  Mn7  1  0.825554  0.000000  0.750000  1
  P  P8  1  0.074952  0.283417  0.746334  1
  P  P9  1  0.074952  0.716583  0.753666  1
  P  P10  1  0.425048  0.216583  0.246334  1
  P  P11  1  0.425048  0.783417  0.253666  1
  P  P12  1  0.574952  0.216583  0.746334  1
  P  P13  1  0.574952  0.783417  0.753666  1
  P  P14  1  0.925048  0.283417  0.246334  1
  P  P15  1  0.925048  0.716583  0.253666  1
  O  O16  1  0.015339  0.160545  0.331764  1
  O  O17  1  0.015339  0.839455  0.168236  1
  O  O18  1  0.013613  0.500000  0.750000  1
  O  O19  1  0.075765  0.209809  0.601652  1
  O  O20  1  0.075765  0.790191  0.898348  1
  O  O21  1  0.199331  0.297094  0.806709  1
  O  O22  1  0.199331  0.702906  0.693291  1
  O  O23  1  0.300669  0.202906  0.306709  1
  O  O24  1  0.300669  0.797094  0.193291  1
  O  O25  1  0.424235  0.290191  0.101652  1
  O  O26  1  0.424235  0.709809  0.398348  1
  O  O27  1  0.486387  0.000000  0.250000  1
  O  O28  1  0.484661  0.660545  0.668236  1
  O  O29  1  0.484661  0.339455  0.831764  1
  O  O30  1  0.515339  0.339455  0.331764  1
  O  O31  1  0.515339  0.660545  0.168236  1
  O  O32  1  0.513613  0.000000  0.750000  1
  O  O33  1  0.575765  0.290191  0.601652  1
  O  O34  1  0.575765  0.709809  0.898348  1
  O  O35  1  0.699331  0.797094  0.693291  1
  O  O36  1  0.699331  0.202906  0.806709  1
  O  O37  1  0.800669  0.297094  0.306709  1
  O  O38  1  0.800669  0.702906  0.193291  1
  O  O39  1  0.924235  0.209809  0.101652  1
  O  O40  1  0.924235  0.790191  0.398348  1
  O  O41  1  0.986387  0.500000  0.250000  1
  O  O42  1  0.984661  0.160545  0.831764  1
  O  O43  1  0.984661  0.839455  0.668236  1
  F  F44  1  0.164275  0.109661  0.080702  1
  F  F45  1  0.164275  0.890339  0.419298  1
  F  F46  1  0.335725  0.390339  0.580702  1
  F  F47  1  0.335725  0.609661  0.919298  1
  F  F48  1  0.664275  0.390339  0.080702  1
  F  F49  1  0.664275  0.609661  0.419298  1
  F  F50  1  0.835725  0.109661  0.580702  1
  F  F51  1  0.835725  0.890339  0.919298  1
