# generated using pymatgen
data_Li4Mn3Ni(PO4)4
_symmetry_space_group_name_H-M   'P 1'
_cell_length_a   4.76822849
_cell_length_b   10.43285768
_cell_length_c   6.10144767
_cell_angle_alpha   90.00000000
_cell_angle_beta   90.00000000
_cell_angle_gamma   90.10192003
_symmetry_Int_Tables_number   1
_chemical_formula_structural   Li4Mn3Ni(PO4)4
_chemical_formula_sum   'Li4 Mn3 Ni1 P4 O16'
_cell_volume   303.52365589
_cell_formula_units_Z   1
loop_
 _symmetry_equiv_pos_site_id
 _symmetry_equiv_pos_as_xyz
  1  'x, y, z'
loop_
 _atom_site_type_symbol
 _atom_site_label
 _atom_site_symmetry_multiplicity
 _atom_site_fract_x
 _atom_site_fract_y
 _atom_site_fract_z
 _atom_site_occupancy
  Li  Li0  1  0.999678  0.001350  0.000039  1
  Li  Li1  1  0.999678  0.001350  0.499961  1
  Li  Li2  1  0.500946  0.498180  0.499547  1
  Li  Li3  1  0.500946  0.498180  0.000453  1
  Mn  Mn4  1  0.027907  0.717498  0.750000  1
  Mn  Mn5  1  0.472511  0.220948  0.750000  1
  Mn  Mn6  1  0.526319  0.780011  0.250000  1
  Ni  Ni7  1  0.980530  0.278032  0.250000  1
  P  P8  1  0.087286  0.588104  0.250000  1
  P  P9  1  0.407907  0.096865  0.250000  1
  P  P10  1  0.590680  0.908456  0.750000  1
  P  P11  1  0.913231  0.406475  0.750000  1
  O  O12  1  0.204718  0.449032  0.250000  1
  O  O13  1  0.223952  0.658286  0.048608  1
  O  O14  1  0.223952  0.658286  0.451392  1
  O  O15  1  0.235564  0.405190  0.750000  1
  O  O16  1  0.268354  0.904429  0.750000  1
  O  O17  1  0.267625  0.165898  0.049048  1
  O  O18  1  0.267625  0.165898  0.450952  1
  O  O19  1  0.291650  0.957489  0.250000  1
  O  O20  1  0.712330  0.046631  0.750000  1
  O  O21  1  0.724579  0.838857  0.547654  1
  O  O22  1  0.724579  0.838857  0.952346  1
  O  O23  1  0.730308  0.102903  0.250000  1
  O  O24  1  0.765578  0.595308  0.250000  1
  O  O25  1  0.782505  0.336790  0.544999  1
  O  O26  1  0.782505  0.336790  0.955001  1
  O  O27  1  0.786554  0.543907  0.750000  1
