# generated using pymatgen
data_Ti3Fe(PO4)6
_symmetry_space_group_name_H-M   'P 1'
_cell_length_a   8.89232702
_cell_length_b   8.89232778
_cell_length_c   8.89232781
_cell_angle_alpha   58.38575269
_cell_angle_beta   58.38575405
_cell_angle_gamma   58.38575089
_symmetry_Int_Tables_number   1
_chemical_formula_structural   Ti3Fe(PO4)6
_chemical_formula_sum   'Ti3 Fe1 P6 O24'
_cell_volume   478.82828523
_cell_formula_units_Z   1
loop_
 _symmetry_equiv_pos_site_id
 _symmetry_equiv_pos_as_xyz
  1  'x, y, z'
loop_
 _atom_site_type_symbol
 _atom_site_label
 _atom_site_symmetry_multiplicity
 _atom_site_fract_x
 _atom_site_fract_y
 _atom_site_fract_z
 _atom_site_occupancy
  Ti  Ti0  1  0.139372  0.139372  0.139372  1
  Ti  Ti1  1  0.359379  0.359379  0.359379  1
  Ti  Ti2  1  0.640594  0.640594  0.640594  1
  Fe  Fe3  1  0.856830  0.856830  0.856830  1
  P  P4  1  0.032016  0.748410  0.470256  1
  P  P5  1  0.470256  0.032016  0.748410  1
  P  P6  1  0.748410  0.470256  0.032016  1
  P  P7  1  0.245410  0.535482  0.968596  1
  P  P8  1  0.535482  0.968596  0.245410  1
  P  P9  1  0.968596  0.245410  0.535482  1
  O  O10  1  0.139809  0.279524  0.499176  1
  O  O11  1  0.279524  0.499176  0.139809  1
  O  O12  1  0.060114  0.923671  0.292451  1
  O  O13  1  0.499176  0.139809  0.279524  1
  O  O14  1  0.209974  0.575787  0.434026  1
  O  O15  1  0.013662  0.765352  0.641239  1
  O  O16  1  0.292451  0.060114  0.923671  1
  O  O17  1  0.434026  0.209974  0.575787  1
  O  O18  1  0.575787  0.434026  0.209974  1
  O  O19  1  0.216710  0.363701  0.999170  1
  O  O20  1  0.072796  0.713001  0.948865  1
  O  O21  1  0.363701  0.999170  0.216710  1
  O  O22  1  0.641239  0.013662  0.765352  1
  O  O23  1  0.923671  0.292451  0.060114  1
  O  O24  1  0.765352  0.641239  0.013662  1
  O  O25  1  0.419170  0.565311  0.790060  1
  O  O26  1  0.565311  0.790060  0.419170  1
  O  O27  1  0.713001  0.948865  0.072796  1
  O  O28  1  0.999170  0.216710  0.363701  1
  O  O29  1  0.790060  0.419170  0.565311  1
  O  O30  1  0.499569  0.860677  0.719840  1
  O  O31  1  0.948865  0.072796  0.713001  1
  O  O32  1  0.719840  0.499569  0.860677  1
  O  O33  1  0.860677  0.719840  0.499569  1
