# generated using pymatgen
data_CrPO5
_symmetry_space_group_name_H-M   'P 1'
_cell_length_a   12.78012134
_cell_length_b   5.04246620
_cell_length_c   12.68238441
_cell_angle_alpha   90.00000000
_cell_angle_beta   60.37623475
_cell_angle_gamma   90.00000000
_symmetry_Int_Tables_number   1
_chemical_formula_structural   CrPO5
_chemical_formula_sum   'Cr8 P8 O40'
_cell_volume   710.46642277
_cell_formula_units_Z   8
loop_
 _symmetry_equiv_pos_site_id
 _symmetry_equiv_pos_as_xyz
  1  'x, y, z'
loop_
 _atom_site_type_symbol
 _atom_site_label
 _atom_site_symmetry_multiplicity
 _atom_site_fract_x
 _atom_site_fract_y
 _atom_site_fract_z
 _atom_site_occupancy
  Cr  Cr0  1  0.128750  0.732241  0.308135  1
  Cr  Cr1  1  0.371250  0.232241  0.191865  1
  Cr  Cr2  1  0.307182  0.736473  0.628841  1
  Cr  Cr3  1  0.192818  0.236473  0.871159  1
  Cr  Cr4  1  0.807182  0.763527  0.128841  1
  Cr  Cr5  1  0.692818  0.263527  0.371159  1
  Cr  Cr6  1  0.628750  0.767759  0.808135  1
  Cr  Cr7  1  0.871250  0.267759  0.691865  1
  P  P8  1  0.090367  0.761837  0.065147  1
  P  P9  1  0.063384  0.747084  0.592648  1
  P  P10  1  0.563384  0.752916  0.092648  1
  P  P11  1  0.409633  0.261837  0.434853  1
  P  P12  1  0.590367  0.738163  0.565147  1
  P  P13  1  0.436616  0.247084  0.907352  1
  P  P14  1  0.936616  0.252916  0.407352  1
  P  P15  1  0.909633  0.238163  0.934853  1
  O  O16  1  0.121082  0.051336  0.016390  1
  O  O17  1  0.041818  0.060856  0.334092  1
  O  O18  1  0.140721  0.716408  0.150407  1
  O  O19  1  0.014169  0.458179  0.612530  1
  O  O20  1  0.129737  0.810421  0.456141  1
  O  O21  1  0.224889  0.483433  0.272323  1
  O  O22  1  0.275111  0.983433  0.227677  1
  O  O23  1  0.370263  0.310421  0.043859  1
  O  O24  1  0.151268  0.770170  0.641075  1
  O  O25  1  0.046689  0.276555  0.864068  1
  O  O26  1  0.359279  0.216408  0.349592  1
  O  O27  1  0.458182  0.560856  0.165908  1
  O  O28  1  0.514169  0.041821  0.112530  1
  O  O29  1  0.378918  0.551336  0.483610  1
  O  O30  1  0.347722  0.070005  0.542978  1
  O  O31  1  0.236249  0.978809  0.778564  1
  O  O32  1  0.263751  0.478809  0.721436  1
  O  O33  1  0.152278  0.570005  0.957022  1
  O  O34  1  0.651268  0.729830  0.141075  1
  O  O35  1  0.546689  0.223445  0.364068  1
  O  O36  1  0.453311  0.776555  0.635932  1
  O  O37  1  0.348732  0.270170  0.858925  1
  O  O38  1  0.847722  0.429995  0.042978  1
  O  O39  1  0.736249  0.521191  0.278564  1
  O  O40  1  0.763751  0.021191  0.221436  1
  O  O41  1  0.652278  0.929995  0.457022  1
  O  O42  1  0.621082  0.448664  0.516390  1
  O  O43  1  0.485831  0.958179  0.887470  1
  O  O44  1  0.541818  0.439144  0.834092  1
  O  O45  1  0.640721  0.783592  0.650408  1
  O  O46  1  0.953311  0.723445  0.135932  1
  O  O47  1  0.848732  0.229829  0.358925  1
  O  O48  1  0.629737  0.689579  0.956141  1
  O  O49  1  0.724889  0.016567  0.772323  1
  O  O50  1  0.775111  0.516567  0.727677  1
  O  O51  1  0.870263  0.189579  0.543859  1
  O  O52  1  0.985831  0.541821  0.387470  1
  O  O53  1  0.859279  0.283592  0.849592  1
  O  O54  1  0.958182  0.939144  0.665908  1
  O  O55  1  0.878918  0.948664  0.983610  1
