# generated using pymatgen
data_TiMn2Ni3(PO4)6
_symmetry_space_group_name_H-M   'P 1'
_cell_length_a   8.55608305
_cell_length_b   8.55608333
_cell_length_c   8.55608320
_cell_angle_alpha   60.85326736
_cell_angle_beta   60.85326451
_cell_angle_gamma   60.85326847
_symmetry_Int_Tables_number   1
_chemical_formula_structural   TiMn2Ni3(PO4)6
_chemical_formula_sum   'Ti1 Mn2 Ni3 P6 O24'
_cell_volume   451.42531992
_cell_formula_units_Z   1
loop_
 _symmetry_equiv_pos_site_id
 _symmetry_equiv_pos_as_xyz
  1  'x, y, z'
loop_
 _atom_site_type_symbol
 _atom_site_label
 _atom_site_symmetry_multiplicity
 _atom_site_fract_x
 _atom_site_fract_y
 _atom_site_fract_z
 _atom_site_occupancy
  Ti  Ti0  1  0.854414  0.854414  0.854414  1
  Mn  Mn1  1  0.000385  0.000385  0.000385  1
  Mn  Mn2  1  0.501093  0.501093  0.501093  1
  Ni  Ni3  1  0.143359  0.143359  0.143359  1
  Ni  Ni4  1  0.358692  0.358692  0.358692  1
  Ni  Ni5  1  0.643484  0.643484  0.643484  1
  P  P6  1  0.250954  0.543393  0.954980  1
  P  P7  1  0.543393  0.954980  0.250954  1
  P  P8  1  0.954980  0.250954  0.543393  1
  P  P9  1  0.046368  0.749556  0.454178  1
  P  P10  1  0.454178  0.046368  0.749556  1
  P  P11  1  0.749556  0.454178  0.046368  1
  O  O12  1  0.108371  0.313683  0.512127  1
  O  O13  1  0.313683  0.512127  0.108371  1
  O  O14  1  0.058179  0.910306  0.259096  1
  O  O15  1  0.512127  0.108371  0.313683  1
  O  O16  1  0.990043  0.821409  0.616277  1
  O  O17  1  0.244050  0.596876  0.446847  1
  O  O18  1  0.259096  0.058179  0.910306  1
  O  O19  1  0.446847  0.244050  0.596876  1
  O  O20  1  0.182526  0.391564  0.991502  1
  O  O21  1  0.596876  0.446847  0.244050  1
  O  O22  1  0.089830  0.744164  0.932623  1
  O  O23  1  0.391564  0.991502  0.182526  1
  O  O24  1  0.616277  0.990043  0.821409  1
  O  O25  1  0.910306  0.259096  0.058179  1
  O  O26  1  0.410755  0.557576  0.756603  1
  O  O27  1  0.821409  0.616277  0.990043  1
  O  O28  1  0.557576  0.756603  0.410755  1
  O  O29  1  0.744164  0.932623  0.089830  1
  O  O30  1  0.756603  0.410755  0.557576  1
  O  O31  1  0.991502  0.182526  0.391564  1
  O  O32  1  0.489494  0.896780  0.678464  1
  O  O33  1  0.932623  0.089830  0.744164  1
  O  O34  1  0.678464  0.489494  0.896780  1
  O  O35  1  0.896780  0.678464  0.489494  1
