# generated using pymatgen
data_LiCo2(PO4)2
_symmetry_space_group_name_H-M   'P 1'
_cell_length_a   10.20913279
_cell_length_b   13.73578227
_cell_length_c   5.09285671
_cell_angle_alpha   90.00000000
_cell_angle_beta   90.00000000
_cell_angle_gamma   90.00000000
_symmetry_Int_Tables_number   1
_chemical_formula_structural   LiCo2(PO4)2
_chemical_formula_sum   'Li4 Co8 P8 O32'
_cell_volume   714.17346177
_cell_formula_units_Z   4
loop_
 _symmetry_equiv_pos_site_id
 _symmetry_equiv_pos_as_xyz
  1  'x, y, z'
loop_
 _atom_site_type_symbol
 _atom_site_label
 _atom_site_symmetry_multiplicity
 _atom_site_fract_x
 _atom_site_fract_y
 _atom_site_fract_z
 _atom_site_occupancy
  Li  Li0  1  0.220801  0.749746  0.549509  1
  Li  Li1  1  0.279199  0.249746  0.549509  1
  Li  Li2  1  0.720801  0.749746  0.450491  1
  Li  Li3  1  0.779199  0.249746  0.450491  1
  Co  Co4  1  0.035064  0.752793  0.059036  1
  Co  Co5  1  0.221594  0.000726  0.553942  1
  Co  Co6  1  0.278406  0.500726  0.553942  1
  Co  Co7  1  0.464936  0.252793  0.059036  1
  Co  Co8  1  0.535064  0.752793  0.940964  1
  Co  Co9  1  0.721594  0.000726  0.446058  1
  Co  Co10  1  0.778406  0.500726  0.446058  1
  Co  Co11  1  0.964936  0.252793  0.940964  1
  P  P12  1  0.029002  0.376464  0.438487  1
  P  P13  1  0.216905  0.128081  0.050752  1
  P  P14  1  0.283095  0.628081  0.050752  1
  P  P15  1  0.470998  0.876464  0.438487  1
  P  P16  1  0.529002  0.376464  0.561513  1
  P  P17  1  0.716905  0.128081  0.949248  1
  P  P18  1  0.783095  0.628081  0.949248  1
  P  P19  1  0.970998  0.876464  0.561513  1
  O  O20  1  0.001651  0.361101  0.138291  1
  O  O21  1  0.037113  0.970618  0.475057  1
  O  O22  1  0.035540  0.784753  0.422567  1
  O  O23  1  0.068578  0.145473  0.991100  1
  O  O24  1  0.177736  0.376067  0.491969  1
  O  O25  1  0.208212  0.720003  0.938834  1
  O  O26  1  0.240356  0.533626  0.918644  1
  O  O27  1  0.243291  0.125471  0.350875  1
  O  O28  1  0.256709  0.625471  0.350875  1
  O  O29  1  0.259644  0.033626  0.918644  1
  O  O30  1  0.291788  0.220003  0.938834  1
  O  O31  1  0.322264  0.876067  0.491969  1
  O  O32  1  0.431422  0.645473  0.991100  1
  O  O33  1  0.464460  0.284753  0.422567  1
  O  O34  1  0.462887  0.470618  0.475057  1
  O  O35  1  0.498349  0.861101  0.138291  1
  O  O36  1  0.501651  0.361101  0.861709  1
  O  O37  1  0.537113  0.970618  0.524943  1
  O  O38  1  0.535540  0.784753  0.577433  1
  O  O39  1  0.568578  0.145473  0.008900  1
  O  O40  1  0.677736  0.376067  0.508031  1
  O  O41  1  0.708212  0.720003  0.061166  1
  O  O42  1  0.740356  0.533626  0.081356  1
  O  O43  1  0.743291  0.125471  0.649125  1
  O  O44  1  0.756709  0.625471  0.649125  1
  O  O45  1  0.759644  0.033626  0.081356  1
  O  O46  1  0.791788  0.220003  0.061166  1
  O  O47  1  0.822264  0.876067  0.508031  1
  O  O48  1  0.931422  0.645473  0.008900  1
  O  O49  1  0.964460  0.284753  0.577433  1
  O  O50  1  0.962887  0.470618  0.524943  1
  O  O51  1  0.998349  0.861101  0.861709  1
