# generated using pymatgen
data_SrLiLa15(CoO8)4
_symmetry_space_group_name_H-M   'P 1'
_cell_length_a   8.77426025
_cell_length_b   10.64053937
_cell_length_c   8.76855455
_cell_angle_alpha   72.18584276
_cell_angle_beta   93.90114979
_cell_angle_gamma   72.09943843
_symmetry_Int_Tables_number   1
_chemical_formula_structural   SrLiLa15(CoO8)4
_chemical_formula_sum   'Sr1 Li1 La15 Co4 O32'
_cell_volume   729.71204489
_cell_formula_units_Z   1
loop_
 _symmetry_equiv_pos_site_id
 _symmetry_equiv_pos_as_xyz
  1  'x, y, z'
loop_
 _atom_site_type_symbol
 _atom_site_label
 _atom_site_symmetry_multiplicity
 _atom_site_fract_x
 _atom_site_fract_y
 _atom_site_fract_z
 _atom_site_occupancy
  Sr  Sr0  1  0.392742  0.122114  0.112999  1
  Li  Li1  1  0.002195  0.249261  0.999157  1
  La  La2  1  0.881639  0.876947  0.613131  1
  La  La3  1  0.610220  0.377245  0.879472  1
  La  La4  1  0.615513  0.876248  0.882208  1
  La  La5  1  0.880485  0.376853  0.610022  1
  La  La6  1  0.135981  0.994699  0.865556  1
  La  La7  1  0.638673  0.249443  0.361203  1
  La  La8  1  0.632173  0.753860  0.365388  1
  La  La9  1  0.136984  0.502700  0.863502  1
  La  La10  1  0.862322  0.504369  0.137442  1
  La  La11  1  0.360228  0.251953  0.638883  1
  La  La12  1  0.365953  0.750140  0.634680  1
  La  La13  1  0.865125  0.993548  0.136295  1
  La  La14  1  0.389649  0.623887  0.117989  1
  La  La15  1  0.118244  0.623867  0.388533  1
  La  La16  1  0.120818  0.121689  0.386236  1
  Co  Co17  1  0.749019  0.124991  0.749219  1
  Co  Co18  1  0.750462  0.625353  0.750884  1
  Co  Co19  1  0.250843  0.374697  0.249489  1
  Co  Co20  1  0.249395  0.874165  0.250777  1
  O  O21  1  0.869432  0.940772  0.868495  1
  O  O22  1  0.870695  0.187709  0.870327  1
  O  O23  1  0.870504  0.440922  0.871642  1
  O  O24  1  0.869653  0.688844  0.870021  1
  O  O25  1  0.911194  0.626672  0.589302  1
  O  O26  1  0.592573  0.124183  0.905426  1
  O  O27  1  0.589568  0.626896  0.910576  1
  O  O28  1  0.912354  0.123641  0.585891  1
  O  O29  1  0.628694  0.307721  0.627816  1
  O  O30  1  0.630140  0.062140  0.630184  1
  O  O31  1  0.629575  0.563898  0.629568  1
  O  O32  1  0.630866  0.808516  0.632065  1
  O  O33  1  0.310173  0.499832  0.683964  1
  O  O34  1  0.811411  0.749726  0.188551  1
  O  O35  1  0.312641  0.001189  0.687916  1
  O  O36  1  0.819683  0.249624  0.183061  1
  O  O37  1  0.699841  0.995059  0.323779  1
  O  O38  1  0.174581  0.254686  0.811685  1
  O  O39  1  0.189565  0.748502  0.813282  1
  O  O40  1  0.682757  0.500706  0.309529  1
  O  O41  1  0.369518  0.439293  0.369563  1
  O  O42  1  0.369226  0.691487  0.370010  1
  O  O43  1  0.365806  0.198153  0.371387  1
  O  O44  1  0.367165  0.936624  0.373213  1
  O  O45  1  0.427222  0.382038  0.072498  1
  O  O46  1  0.411914  0.869841  0.088689  1
  O  O47  1  0.089580  0.872650  0.412768  1
  O  O48  1  0.071737  0.377689  0.426731  1
  O  O49  1  0.133265  0.554011  0.134652  1
  O  O50  1  0.124516  0.313116  0.131244  1
  O  O51  1  0.131372  0.808329  0.132344  1
  O  O52  1  0.124113  0.057503  0.130754  1
