# generated using pymatgen
data_Li4MnH6(S2O9)2
_symmetry_space_group_name_H-M   'P 1'
_cell_length_a   7.54007475
_cell_length_b   19.58856410
_cell_length_c   10.29308761
_cell_angle_alpha   90.00000000
_cell_angle_beta   90.00000000
_cell_angle_gamma   90.00000000
_symmetry_Int_Tables_number   1
_chemical_formula_structural   Li4MnH6(S2O9)2
_chemical_formula_sum   'Li16 Mn4 H24 S16 O72'
_cell_volume   1520.28119213
_cell_formula_units_Z   4
loop_
 _symmetry_equiv_pos_site_id
 _symmetry_equiv_pos_as_xyz
  1  'x, y, z'
loop_
 _atom_site_type_symbol
 _atom_site_label
 _atom_site_symmetry_multiplicity
 _atom_site_fract_x
 _atom_site_fract_y
 _atom_site_fract_z
 _atom_site_occupancy
  Li  Li0  1  0.034512  0.837100  0.210482  1
  Li  Li1  1  0.034512  0.662900  0.710482  1
  Li  Li2  1  0.144734  0.021859  0.224242  1
  Li  Li3  1  0.144734  0.478141  0.724242  1
  Li  Li4  1  0.355266  0.021859  0.724242  1
  Li  Li5  1  0.355266  0.478141  0.224242  1
  Li  Li6  1  0.465488  0.837100  0.710482  1
  Li  Li7  1  0.465488  0.662900  0.210482  1
  Li  Li8  1  0.534512  0.337100  0.789518  1
  Li  Li9  1  0.534512  0.162900  0.289518  1
  Li  Li10  1  0.644734  0.978141  0.275758  1
  Li  Li11  1  0.644734  0.521859  0.775758  1
  Li  Li12  1  0.855266  0.521859  0.275758  1
  Li  Li13  1  0.855266  0.978141  0.775758  1
  Li  Li14  1  0.965488  0.337100  0.289518  1
  Li  Li15  1  0.965488  0.162900  0.789518  1
  Mn  Mn16  1  0.250000  0.250000  0.153247  1
  Mn  Mn17  1  0.250000  0.250000  0.653247  1
  Mn  Mn18  1  0.750000  0.750000  0.346753  1
  Mn  Mn19  1  0.750000  0.750000  0.846753  1
  H  H20  1  0.063313  0.779742  0.439014  1
  H  H21  1  0.063313  0.720258  0.939014  1
  H  H22  1  0.097499  0.715978  0.349008  1
  H  H23  1  0.097499  0.784022  0.849008  1
  H  H24  1  0.092340  0.558970  0.058691  1
  H  H25  1  0.092340  0.941030  0.558691  1
  H  H26  1  0.407660  0.558970  0.558691  1
  H  H27  1  0.407660  0.941030  0.058691  1
  H  H28  1  0.402501  0.715978  0.849008  1
  H  H29  1  0.402501  0.784022  0.349008  1
  H  H30  1  0.436687  0.720258  0.439014  1
  H  H31  1  0.436687  0.779742  0.939014  1
  H  H32  1  0.563313  0.220258  0.060986  1
  H  H33  1  0.563313  0.279742  0.560986  1
  H  H34  1  0.597499  0.215978  0.650992  1
  H  H35  1  0.597499  0.284022  0.150992  1
  H  H36  1  0.592340  0.058970  0.941309  1
  H  H37  1  0.592340  0.441030  0.441309  1
  H  H38  1  0.907660  0.058970  0.441309  1
  H  H39  1  0.907660  0.441030  0.941309  1
  H  H40  1  0.902501  0.284022  0.650992  1
  H  H41  1  0.902501  0.215978  0.150992  1
  H  H42  1  0.936687  0.220258  0.560986  1
  H  H43  1  0.936687  0.279742  0.060986  1
  S  S44  1  0.142539  0.152959  0.407814  1
  S  S45  1  0.142539  0.347040  0.907814  1
  S  S46  1  0.220045  0.572472  0.397146  1
  S  S47  1  0.220045  0.927528  0.897146  1
  S  S48  1  0.279955  0.927528  0.397146  1
  S  S49  1  0.279955  0.572472  0.897146  1
  S  S50  1  0.357461  0.152959  0.907814  1
  S  S51  1  0.357461  0.347040  0.407814  1
  S  S52  1  0.642539  0.652960  0.592186  1
  S  S53  1  0.642539  0.847040  0.092186  1
  S  S54  1  0.720045  0.072472  0.602854  1
  S  S55  1  0.720045  0.427528  0.102854  1
  S  S56  1  0.779955  0.072472  0.102854  1
  S  S57  1  0.779955  0.427528  0.602854  1
  S  S58  1  0.857461  0.652960  0.092186  1
  S  S59  1  0.857461  0.847040  0.592186  1
  O  O60  1  0.013749  0.698909  0.096521  1
  O  O61  1  0.013749  0.801091  0.596521  1
  O  O62  1  0.047237  0.762690  0.347858  1
  O  O63  1  0.047237  0.737310  0.847858  1
  O  O64  1  0.122359  0.582638  0.812643  1
  O  O65  1  0.122359  0.917362  0.312643  1
  O  O66  1  0.086280  0.081466  0.379347  1
  O  O67  1  0.086280  0.418534  0.879347  1
  O  O68  1  0.104024  0.520206  0.340708  1
  O  O69  1  0.104024  0.979794  0.840708  1
  O  O70  1  0.130772  0.636396  0.431096  1
  O  O71  1  0.130772  0.863604  0.931096  1
  O  O72  1  0.212762  0.539296  0.028308  1
  O  O73  1  0.212762  0.960704  0.528308  1
  O  O74  1  0.276104  0.327276  0.805845  1
  O  O75  1  0.276104  0.172724  0.305845  1
  O  O76  1  0.230646  0.343169  0.036818  1
  O  O77  1  0.230646  0.156831  0.536818  1
  O  O78  1  0.269354  0.156831  0.036818  1
  O  O79  1  0.269354  0.343169  0.536818  1
  O  O80  1  0.223896  0.172724  0.805845  1
  O  O81  1  0.223896  0.327276  0.305845  1
  O  O82  1  0.287238  0.539296  0.528308  1
  O  O83  1  0.287238  0.960704  0.028308  1
  O  O84  1  0.369228  0.863604  0.431096  1
  O  O85  1  0.369228  0.636396  0.931096  1
  O  O86  1  0.395976  0.520206  0.840708  1
  O  O87  1  0.395976  0.979794  0.340708  1
  O  O88  1  0.413720  0.081466  0.879347  1
  O  O89  1  0.413720  0.418534  0.379347  1
  O  O90  1  0.377641  0.582638  0.312643  1
  O  O91  1  0.377641  0.917362  0.812643  1
  O  O92  1  0.452763  0.737310  0.347858  1
  O  O93  1  0.452763  0.762690  0.847858  1
  O  O94  1  0.486251  0.801091  0.096521  1
  O  O95  1  0.486251  0.698909  0.596521  1
  O  O96  1  0.513749  0.198909  0.903479  1
  O  O97  1  0.513749  0.301091  0.403479  1
  O  O98  1  0.547237  0.262690  0.652142  1
  O  O99  1  0.547237  0.237310  0.152142  1
  O  O100  1  0.622359  0.082638  0.187357  1
  O  O101  1  0.622359  0.417363  0.687357  1
  O  O102  1  0.586280  0.581466  0.620653  1
  O  O103  1  0.586280  0.918534  0.120653  1
  O  O104  1  0.604024  0.020206  0.659292  1
  O  O105  1  0.604024  0.479794  0.159292  1
  O  O106  1  0.630772  0.136396  0.568904  1
  O  O107  1  0.630772  0.363604  0.068904  1
  O  O108  1  0.712762  0.039296  0.971692  1
  O  O109  1  0.712762  0.460704  0.471692  1
  O  O110  1  0.776104  0.827276  0.194155  1
  O  O111  1  0.776104  0.672724  0.694155  1
  O  O112  1  0.730646  0.656831  0.463182  1
  O  O113  1  0.730646  0.843169  0.963182  1
  O  O114  1  0.769354  0.843169  0.463182  1
  O  O115  1  0.769354  0.656831  0.963182  1
  O  O116  1  0.723896  0.672724  0.194155  1
  O  O117  1  0.723896  0.827276  0.694155  1
  O  O118  1  0.787238  0.039296  0.471692  1
  O  O119  1  0.787238  0.460704  0.971692  1
  O  O120  1  0.869228  0.136396  0.068904  1
  O  O121  1  0.869228  0.363604  0.568904  1
  O  O122  1  0.895976  0.479794  0.659292  1
  O  O123  1  0.895976  0.020206  0.159292  1
  O  O124  1  0.913720  0.581466  0.120653  1
  O  O125  1  0.913720  0.918534  0.620653  1
  O  O126  1  0.877641  0.082638  0.687357  1
  O  O127  1  0.877641  0.417363  0.187357  1
  O  O128  1  0.952763  0.237310  0.652142  1
  O  O129  1  0.952763  0.262690  0.152142  1
  O  O130  1  0.986251  0.198909  0.403479  1
  O  O131  1  0.986251  0.301091  0.903479  1
