# generated using pymatgen
data_LiV2CrO6
_symmetry_space_group_name_H-M   'P 1'
_cell_length_a   7.94014813
_cell_length_b   7.94014807
_cell_length_c   6.06632511
_cell_angle_alpha   102.33024610
_cell_angle_beta   102.33024597
_cell_angle_gamma   68.10580937
_symmetry_Int_Tables_number   1
_chemical_formula_structural   LiV2CrO6
_chemical_formula_sum   'Li3 V6 Cr3 O18'
_cell_volume   342.88219387
_cell_formula_units_Z   3
loop_
 _symmetry_equiv_pos_site_id
 _symmetry_equiv_pos_as_xyz
  1  'x, y, z'
loop_
 _atom_site_type_symbol
 _atom_site_label
 _atom_site_symmetry_multiplicity
 _atom_site_fract_x
 _atom_site_fract_y
 _atom_site_fract_z
 _atom_site_occupancy
  Li  Li0  1  0.336551  0.669884  0.509324  1
  Li  Li1  1  0.666667  0.000000  0.166667  1
  Li  Li2  1  0.996782  0.330116  0.824010  1
  V  V3  1  0.001591  0.994861  0.999120  1
  V  V4  1  0.671806  0.665076  0.334214  1
  V  V5  1  0.326512  0.659845  0.000504  1
  V  V6  1  0.661527  0.334924  0.999120  1
  V  V7  1  0.006821  0.340155  0.332829  1
  V  V8  1  0.331743  0.005139  0.334214  1
  Cr  Cr9  1  0.994821  0.671846  0.666667  1
  Cr  Cr10  1  0.338513  0.328154  0.666667  1
  Cr  Cr11  1  0.666667  0.000000  0.666667  1
  O  O12  1  0.814449  0.823341  0.433688  1
  O  O13  1  0.487252  0.820585  0.113304  1
  O  O14  1  0.824189  0.489348  0.108579  1
  O  O15  1  0.843325  0.852218  0.899645  1
  O  O16  1  0.503860  0.837194  0.540841  1
  O  O17  1  0.842660  0.507168  0.551732  1
  O  O18  1  0.177318  0.842477  0.224754  1
  O  O19  1  0.509144  0.510652  0.224754  1
  O  O20  1  0.846081  0.179415  0.220029  1
  O  O21  1  0.159499  0.824007  0.781602  1
  O  O22  1  0.490673  0.492832  0.781602  1
  O  O23  1  0.829473  0.162806  0.792492  1
  O  O24  1  0.153736  0.487070  0.438328  1
  O  O25  1  0.490008  0.147782  0.433688  1
  O  O26  1  0.156015  0.157523  0.108579  1
  O  O27  1  0.179597  0.512930  0.895005  1
  O  O28  1  0.518885  0.176659  0.899645  1
  O  O29  1  0.173835  0.175993  0.551732  1
