# generated using pymatgen
data_Li6Nb3P8O29
_symmetry_space_group_name_H-M   'P 1'
_cell_length_a   10.02260913
_cell_length_b   10.02568684
_cell_length_c   13.97031292
_cell_angle_alpha   89.58412824
_cell_angle_beta   89.90214634
_cell_angle_gamma   60.08483008
_symmetry_Int_Tables_number   1
_chemical_formula_structural   Li6Nb3P8O29
_chemical_formula_sum   'Li12 Nb6 P16 O58'
_cell_volume   1216.71762777
_cell_formula_units_Z   2
loop_
 _symmetry_equiv_pos_site_id
 _symmetry_equiv_pos_as_xyz
  1  'x, y, z'
loop_
 _atom_site_type_symbol
 _atom_site_label
 _atom_site_symmetry_multiplicity
 _atom_site_fract_x
 _atom_site_fract_y
 _atom_site_fract_z
 _atom_site_occupancy
  Li  Li0  1  0.008811  0.018474  0.502933  1
  Li  Li1  1  0.000683  0.000923  0.001370  1
  Li  Li2  1  0.093320  0.675010  0.059711  1
  Li  Li3  1  0.331805  0.328597  0.884321  1
  Li  Li4  1  0.231633  0.672010  0.560780  1
  Li  Li5  1  0.669395  0.098131  0.560597  1
  Li  Li6  1  0.329986  0.770240  0.942480  1
  Li  Li7  1  0.673737  0.228123  0.061319  1
  Li  Li8  1  0.329095  0.906568  0.440418  1
  Li  Li9  1  0.769583  0.334076  0.440658  1
  Li  Li10  1  0.905333  0.327046  0.941233  1
  Li  Li11  1  0.899372  0.768937  0.440078  1
  Nb  Nb12  1  0.001732  0.432002  0.745474  1
  Nb  Nb13  1  0.999154  0.566138  0.251495  1
  Nb  Nb14  1  0.430799  0.003671  0.244676  1
  Nb  Nb15  1  0.567904  0.993968  0.753767  1
  Nb  Nb16  1  0.437400  0.566189  0.749329  1
  Nb  Nb17  1  0.568171  0.432000  0.250220  1
  P  P18  1  0.080361  0.223004  0.343036  1
  P  P19  1  0.221439  0.083251  0.843299  1
  P  P20  1  0.087859  0.688625  0.846778  1
  P  P21  1  0.333143  0.335993  0.120580  1
  P  P22  1  0.336556  0.332628  0.621377  1
  P  P23  1  0.227004  0.687908  0.344966  1
  P  P24  1  0.309798  0.774161  0.155722  1
  P  P25  1  0.689986  0.081504  0.345766  1
  P  P26  1  0.308033  0.918468  0.651563  1
  P  P27  1  0.688118  0.222937  0.844603  1
  P  P28  1  0.774349  0.309173  0.654677  1
  P  P29  1  0.669937  0.662274  0.879707  1
  P  P30  1  0.664546  0.669826  0.379063  1
  P  P31  1  0.915478  0.310636  0.152249  1
  P  P32  1  0.776507  0.917520  0.156266  1
  P  P33  1  0.915932  0.775586  0.656374  1
  O  O34  1  0.003969  0.206556  0.244688  1
  O  O35  1  0.992560  0.225066  0.062338  1
  O  O36  1  0.076589  0.244356  0.845530  1
  O  O37  1  0.207473  0.007171  0.744596  1
  O  O38  1  0.220982  0.997631  0.561642  1
  O  O39  1  0.243281  0.082511  0.344267  1
  O  O40  1  0.086946  0.374168  0.331396  1
  O  O41  1  0.193344  0.333386  0.670245  1
  O  O42  1  0.108003  0.525360  0.834823  1
  O  O43  1  0.007579  0.772021  0.568697  1
  O  O44  1  0.001680  0.787704  0.751527  1
  O  O45  1  0.080862  0.672444  0.347488  1
  O  O46  1  0.326001  0.195530  0.166143  1
  O  O47  1  0.363483  0.107673  0.833837  1
  O  O48  1  0.192870  0.486759  0.158934  1
  O  O49  1  0.335598  0.334783  0.013168  1
  O  O50  1  0.335820  0.336987  0.515504  1
  O  O51  1  0.331152  0.482233  0.664146  1
  O  O52  1  0.534236  0.090404  0.334268  1
  O  O53  1  0.483833  0.188046  0.664645  1
  O  O54  1  0.250412  0.672014  0.844374  1
  O  O55  1  0.207738  0.788736  0.249987  1
  O  O56  1  0.221574  0.771327  0.068095  1
  O  O57  1  0.229676  0.776297  0.432245  1
  O  O58  1  0.372328  0.531373  0.332988  1
  O  O59  1  0.487073  0.321785  0.159318  1
  O  O60  1  0.325241  0.755990  0.657012  1
  O  O61  1  0.523937  0.366212  0.833845  1
  O  O62  1  0.671133  0.080466  0.844670  1
  O  O63  1  0.225322  0.983907  0.925116  1
  O  O64  1  0.783311  0.010826  0.073953  1
  O  O65  1  0.794748  0.995505  0.254249  1
  O  O66  1  0.329548  0.914778  0.156449  1
  O  O67  1  0.465814  0.625119  0.167794  1
  O  O68  1  0.669980  0.245857  0.345562  1
  O  O69  1  0.519494  0.668745  0.836730  1
  O  O70  1  0.624599  0.465232  0.663050  1
  O  O71  1  0.772714  0.219489  0.567826  1
  O  O72  1  0.773612  0.231917  0.931617  1
  O  O73  1  0.786676  0.211496  0.750566  1
  O  O74  1  0.750654  0.330014  0.157323  1
  O  O75  1  0.514989  0.812802  0.334873  1
  O  O76  1  0.464680  0.909601  0.663917  1
  O  O77  1  0.677196  0.517564  0.337584  1
  O  O78  1  0.667913  0.658331  0.985428  1
  O  O79  1  0.662541  0.670302  0.485943  1
  O  O80  1  0.813929  0.515970  0.835378  1
  O  O81  1  0.631641  0.903630  0.166709  1
  O  O82  1  0.670310  0.805463  0.832448  1
  O  O83  1  0.915028  0.328726  0.656295  1
  O  O84  1  0.984927  0.220994  0.425516  1
  O  O85  1  0.904650  0.466641  0.166469  1
  O  O86  1  0.807478  0.680434  0.339114  1
  O  O87  1  0.900502  0.631213  0.666286  1
  O  O88  1  0.756679  0.922114  0.655682  1
  O  O89  1  0.778463  0.995258  0.434958  1
  O  O90  1  0.920501  0.752600  0.158306  1
  O  O91  1  0.004342  0.772686  0.935288  1
