# generated using pymatgen
data_Na5Fe2P2(CO7)2
_symmetry_space_group_name_H-M   'P 1'
_cell_length_a   8.92888877
_cell_length_b   5.21066302
_cell_length_c   6.60446797
_cell_angle_alpha   90.00000000
_cell_angle_beta   90.00000000
_cell_angle_gamma   89.44387065
_symmetry_Int_Tables_number   1
_chemical_formula_structural   Na5Fe2P2(CO7)2
_chemical_formula_sum   'Na5 Fe2 P2 C2 O14'
_cell_volume   307.26124143
_cell_formula_units_Z   1
loop_
 _symmetry_equiv_pos_site_id
 _symmetry_equiv_pos_as_xyz
  1  'x, y, z'
loop_
 _atom_site_type_symbol
 _atom_site_label
 _atom_site_symmetry_multiplicity
 _atom_site_fract_x
 _atom_site_fract_y
 _atom_site_fract_z
 _atom_site_occupancy
  Na  Na0  1  0.250413  0.244638  0.005626  1
  Na  Na1  1  0.250413  0.244638  0.494374  1
  Na  Na2  1  0.748559  0.751236  0.501111  1
  Na  Na3  1  0.748559  0.751236  0.998889  1
  Na  Na4  1  0.922429  0.237785  0.750000  1
  Fe  Fe5  1  0.351587  0.779837  0.750000  1
  Fe  Fe6  1  0.648242  0.216291  0.250000  1
  P  P7  1  0.420107  0.713446  0.250000  1
  P  P8  1  0.581841  0.298587  0.750000  1
  C  C9  1  0.061906  0.727495  0.750000  1
  C  C10  1  0.929883  0.265831  0.250000  1
  O  O11  1  0.069236  0.292208  0.250000  1
  O  O12  1  0.127941  0.949620  0.750000  1
  O  O13  1  0.146773  0.522962  0.750000  1
  O  O14  1  0.331077  0.779710  0.058151  1
  O  O15  1  0.331077  0.779710  0.441849  1
  O  O16  1  0.428896  0.165567  0.750000  1
  O  O17  1  0.459247  0.414468  0.250000  1
  O  O18  1  0.562177  0.595777  0.750000  1
  O  O19  1  0.574765  0.856183  0.250000  1
  O  O20  1  0.679352  0.216777  0.562277  1
  O  O21  1  0.679352  0.216777  0.937723  1
  O  O22  1  0.833713  0.462050  0.250000  1
  O  O23  1  0.862784  0.041661  0.250000  1
  O  O24  1  0.917575  0.710585  0.750000  1
