# generated using pymatgen
data_Li4Mn3(NiO4)3
_symmetry_space_group_name_H-M   'P 1'
_cell_length_a   5.85962998
_cell_length_b   5.94019102
_cell_length_c   6.53449101
_cell_angle_alpha   104.06934144
_cell_angle_beta   102.80195202
_cell_angle_gamma   91.65175136
_symmetry_Int_Tables_number   1
_chemical_formula_structural   Li4Mn3(NiO4)3
_chemical_formula_sum   'Li4 Mn3 Ni3 O12'
_cell_volume   214.31718249
_cell_formula_units_Z   1
loop_
 _symmetry_equiv_pos_site_id
 _symmetry_equiv_pos_as_xyz
  1  'x, y, z'
loop_
 _atom_site_type_symbol
 _atom_site_label
 _atom_site_symmetry_multiplicity
 _atom_site_fract_x
 _atom_site_fract_y
 _atom_site_fract_z
 _atom_site_occupancy
  Li  Li0  1  0.509310  0.992053  0.987293  1
  Li  Li1  1  0.833333  0.333333  0.333333  1
  Li  Li2  1  0.333333  0.333333  0.333333  1
  Li  Li3  1  0.157357  0.674613  0.679374  1
  Mn  Mn4  1  0.169288  0.161586  0.673812  1
  Mn  Mn5  1  0.497378  0.505081  0.992854  1
  Mn  Mn6  1  0.833333  0.833333  0.333333  1
  Ni  Ni7  1  0.670237  0.164413  0.670186  1
  Ni  Ni8  1  0.996430  0.502254  0.996480  1
  Ni  Ni9  1  0.333333  0.833333  0.333333  1
  O  O10  1  0.736126  0.285775  0.979886  1
  O  O11  1  0.268518  0.264273  0.988306  1
  O  O12  1  0.607648  0.068008  0.356883  1
  O  O13  1  0.930541  0.380892  0.686781  1
  O  O14  1  0.078835  0.076309  0.361861  1
  O  O15  1  0.398149  0.402394  0.678361  1
  O  O16  1  0.587832  0.590358  0.304805  1
  O  O17  1  0.931665  0.921242  0.643253  1
  O  O18  1  0.059019  0.598658  0.309784  1
  O  O19  1  0.409442  0.953782  0.664454  1
  O  O20  1  0.735001  0.745425  0.023414  1
  O  O21  1  0.257225  0.712884  0.002213  1
