# generated using pymatgen
data_Li2Fe2(SO4)3
_symmetry_space_group_name_H-M   'P 1'
_cell_length_a   12.47801365
_cell_length_b   8.71620920
_cell_length_c   8.89734808
_cell_angle_alpha   90.00000000
_cell_angle_beta   90.00000000
_cell_angle_gamma   90.00000000
_symmetry_Int_Tables_number   1
_chemical_formula_structural   Li2Fe2(SO4)3
_chemical_formula_sum   'Li8 Fe8 S12 O48'
_cell_volume   967.68427322
_cell_formula_units_Z   4
loop_
 _symmetry_equiv_pos_site_id
 _symmetry_equiv_pos_as_xyz
  1  'x, y, z'
loop_
 _atom_site_type_symbol
 _atom_site_label
 _atom_site_symmetry_multiplicity
 _atom_site_fract_x
 _atom_site_fract_y
 _atom_site_fract_z
 _atom_site_occupancy
  Li  Li0  1  0.182106  0.218050  0.276144  1
  Li  Li1  1  0.182106  0.781950  0.776144  1
  Li  Li2  1  0.317894  0.281950  0.776144  1
  Li  Li3  1  0.317894  0.718050  0.276144  1
  Li  Li4  1  0.682106  0.281950  0.723856  1
  Li  Li5  1  0.682106  0.718050  0.223856  1
  Li  Li6  1  0.817894  0.218050  0.223856  1
  Li  Li7  1  0.817894  0.781950  0.723856  1
  Fe  Fe8  1  0.111063  0.252305  0.959273  1
  Fe  Fe9  1  0.111063  0.747695  0.459273  1
  Fe  Fe10  1  0.388937  0.752305  0.959273  1
  Fe  Fe11  1  0.388937  0.247695  0.459273  1
  Fe  Fe12  1  0.611063  0.247695  0.040727  1
  Fe  Fe13  1  0.611063  0.752305  0.540727  1
  Fe  Fe14  1  0.888937  0.252305  0.540727  1
  Fe  Fe15  1  0.888937  0.747695  0.040727  1
  S  S16  1  0.000000  0.456642  0.250000  1
  S  S17  1  0.000000  0.543358  0.750000  1
  S  S18  1  0.146462  0.101233  0.604519  1
  S  S19  1  0.146462  0.898767  0.104519  1
  S  S20  1  0.353538  0.398767  0.104519  1
  S  S21  1  0.353538  0.601233  0.604519  1
  S  S22  1  0.500000  0.043358  0.750000  1
  S  S23  1  0.500000  0.956642  0.250000  1
  S  S24  1  0.646462  0.398767  0.395481  1
  S  S25  1  0.646462  0.601233  0.895481  1
  S  S26  1  0.853538  0.101233  0.895481  1
  S  S27  1  0.853538  0.898767  0.395481  1
  O  O28  1  0.034036  0.136122  0.576059  1
  O  O29  1  0.034036  0.863878  0.076059  1
  O  O30  1  0.056928  0.549254  0.362609  1
  O  O31  1  0.056928  0.450746  0.862609  1
  O  O32  1  0.080616  0.355632  0.174511  1
  O  O33  1  0.080616  0.644368  0.674511  1
  O  O34  1  0.161731  0.069696  0.109474  1
  O  O35  1  0.161731  0.930304  0.609474  1
  O  O36  1  0.182678  0.166136  0.751867  1
  O  O37  1  0.182678  0.833864  0.251867  1
  O  O38  1  0.215652  0.834101  0.982406  1
  O  O39  1  0.215652  0.165899  0.482406  1
  O  O40  1  0.284348  0.334101  0.982406  1
  O  O41  1  0.284348  0.665899  0.482406  1
  O  O42  1  0.317322  0.666136  0.751867  1
  O  O43  1  0.317322  0.333864  0.251867  1
  O  O44  1  0.338269  0.430304  0.609474  1
  O  O45  1  0.338269  0.569696  0.109474  1
  O  O46  1  0.419384  0.144368  0.674511  1
  O  O47  1  0.419384  0.855632  0.174511  1
  O  O48  1  0.443072  0.049254  0.362609  1
  O  O49  1  0.443072  0.950746  0.862609  1
  O  O50  1  0.465964  0.636122  0.576059  1
  O  O51  1  0.465964  0.363878  0.076059  1
  O  O52  1  0.534036  0.363878  0.423941  1
  O  O53  1  0.534036  0.636122  0.923941  1
  O  O54  1  0.556928  0.049254  0.137391  1
  O  O55  1  0.556928  0.950746  0.637391  1
  O  O56  1  0.580616  0.144368  0.825489  1
  O  O57  1  0.580616  0.855632  0.325489  1
  O  O58  1  0.661731  0.430304  0.890526  1
  O  O59  1  0.661731  0.569696  0.390526  1
  O  O60  1  0.682678  0.333864  0.248133  1
  O  O61  1  0.682678  0.666136  0.748133  1
  O  O62  1  0.715652  0.334101  0.517594  1
  O  O63  1  0.715652  0.665899  0.017594  1
  O  O64  1  0.784348  0.165899  0.017594  1
  O  O65  1  0.784348  0.834101  0.517594  1
  O  O66  1  0.817322  0.166136  0.748133  1
  O  O67  1  0.817322  0.833864  0.248133  1
  O  O68  1  0.838269  0.069696  0.390526  1
  O  O69  1  0.838269  0.930304  0.890526  1
  O  O70  1  0.919384  0.355632  0.325489  1
  O  O71  1  0.919384  0.644368  0.825489  1
  O  O72  1  0.943072  0.450746  0.637391  1
  O  O73  1  0.943072  0.549254  0.137391  1
  O  O74  1  0.965964  0.136122  0.923941  1
  O  O75  1  0.965964  0.863878  0.423941  1
