# generated using pymatgen
data_Ba6Ti7Nb9O42
_symmetry_space_group_name_H-M   'P 1'
_cell_length_a   9.20245077
_cell_length_b   9.21765630
_cell_length_c   11.94856436
_cell_angle_alpha   89.98238655
_cell_angle_beta   90.00904413
_cell_angle_gamma   120.05418880
_symmetry_Int_Tables_number   1
_chemical_formula_structural   Ba6Ti7Nb9O42
_chemical_formula_sum   'Ba6 Ti7 Nb9 O42'
_cell_volume   877.26933669
_cell_formula_units_Z   1
loop_
 _symmetry_equiv_pos_site_id
 _symmetry_equiv_pos_as_xyz
  1  'x, y, z'
loop_
 _atom_site_type_symbol
 _atom_site_label
 _atom_site_symmetry_multiplicity
 _atom_site_fract_x
 _atom_site_fract_y
 _atom_site_fract_z
 _atom_site_occupancy
  Ba  Ba0  1  0.000006  0.596150  0.244762  1
  Ba  Ba1  1  0.000005  0.411255  0.750945  1
  Ba  Ba2  1  0.406620  0.406253  0.245016  1
  Ba  Ba3  1  0.599219  0.595539  0.750079  1
  Ba  Ba4  1  0.400794  0.996319  0.750083  1
  Ba  Ba5  1  0.593368  0.999632  0.245019  1
  Ti  Ti6  1  0.000003  0.749551  0.909060  1
  Ti  Ti7  1  0.000030  0.761604  0.600177  1
  Ti  Ti8  1  0.999984  0.242081  0.093063  1
  Ti  Ti9  1  0.241385  0.241552  0.593587  1
  Ti  Ti10  1  0.240593  0.996172  0.089941  1
  Ti  Ti11  1  0.759415  0.755596  0.089943  1
  Ti  Ti12  1  0.758644  0.000202  0.593586  1
  Nb  Nb13  1  0.000006  0.248468  0.406336  1
  Nb  Nb14  1  0.329880  0.665367  0.005571  1
  Nb  Nb15  1  0.333457  0.666806  0.509147  1
  Nb  Nb16  1  0.246697  0.244117  0.907011  1
  Nb  Nb17  1  0.245722  0.998239  0.404926  1
  Nb  Nb18  1  0.754289  0.752517  0.404947  1
  Nb  Nb19  1  0.670113  0.335503  0.005568  1
  Nb  Nb20  1  0.666582  0.333377  0.509146  1
  Nb  Nb21  1  0.753293  0.997413  0.907002  1
  O  O22  1  0.999987  0.798562  0.072615  1
  O  O23  1  0.000001  0.796019  0.425266  1
  O  O24  1  0.000006  0.787725  0.751633  1
  O  O25  1  0.167472  0.688168  0.599826  1
  O  O26  1  0.167361  0.687016  0.901711  1
  O  O27  1  0.999995  0.206350  0.248502  1
  O  O28  1  0.000008  0.201411  0.575519  1
  O  O29  1  -0.000001  0.206181  0.925523  1
  O  O30  1  0.312219  0.832770  0.101516  1
  O  O31  1  0.315867  0.831101  0.398805  1
  O  O32  1  0.167206  0.479158  0.100323  1
  O  O33  1  0.169101  0.484778  0.398786  1
  O  O34  1  0.314548  0.483732  0.899332  1
  O  O35  1  0.312385  0.478948  0.599653  1
  O  O36  1  0.521318  0.833523  0.600069  1
  O  O37  1  0.515314  0.831792  0.897350  1
  O  O38  1  0.199979  0.201410  0.075524  1
  O  O39  1  0.205311  0.205081  0.425973  1
  O  O40  1  0.205773  0.205684  0.748466  1
  O  O41  1  0.522176  0.689290  0.096730  1
  O  O42  1  0.515944  0.684591  0.399451  1
  O  O43  1  0.199459  0.999635  0.576006  1
  O  O44  1  0.203863  -0.000110  0.925861  1
  O  O45  1  0.205990  0.999202  0.247624  1
  O  O46  1  0.484684  0.316480  0.897343  1
  O  O47  1  0.478692  0.312207  0.600075  1
  O  O48  1  0.793993  0.793202  0.247631  1
  O  O49  1  0.800523  0.800148  0.576004  1
  O  O50  1  0.796112  0.796009  0.925863  1
  O  O51  1  0.477804  0.167113  0.096726  1
  O  O52  1  0.484047  0.168651  0.399452  1
  O  O53  1  0.684130  0.515227  0.398797  1
  O  O54  1  0.687767  0.520537  0.101514  1
  O  O55  1  0.832526  0.520698  0.599821  1
  O  O56  1  0.832633  0.519651  0.901732  1
  O  O57  1  0.687624  0.166567  0.599658  1
  O  O58  1  0.685445  0.169179  0.899319  1
  O  O59  1  0.830886  0.315666  0.398780  1
  O  O60  1  0.832787  0.311946  0.100330  1
  O  O61  1  0.794236  0.999906  0.748467  1
  O  O62  1  0.794698  0.999769  0.425978  1
  O  O63  1  0.800019  0.001412  0.075529  1
