# generated using pymatgen
data_Li2Fe2CoO6
_symmetry_space_group_name_H-M   'P 1'
_cell_length_a   2.86158983
_cell_length_b   6.74808687
_cell_length_c   5.87175206
_cell_angle_alpha   104.91643109
_cell_angle_beta   90.09793075
_cell_angle_gamma   101.97350811
_symmetry_Int_Tables_number   1
_chemical_formula_structural   Li2Fe2CoO6
_chemical_formula_sum   'Li2 Fe2 Co1 O6'
_cell_volume   106.99819200
_cell_formula_units_Z   1
loop_
 _symmetry_equiv_pos_site_id
 _symmetry_equiv_pos_as_xyz
  1  'x, y, z'
loop_
 _atom_site_type_symbol
 _atom_site_label
 _atom_site_symmetry_multiplicity
 _atom_site_fract_x
 _atom_site_fract_y
 _atom_site_fract_z
 _atom_site_occupancy
  Li  Li0  1  0.349235  0.701566  0.695346  1
  Li  Li1  1  0.650765  0.298434  0.304654  1
  Fe  Fe2  1  0.341901  0.679805  0.166508  1
  Fe  Fe3  1  0.658099  0.320195  0.833492  1
  Co  Co4  1  0.000000  0.000000  0.500000  1
  O  O5  1  0.496027  0.990136  0.284903  1
  O  O6  1  0.852807  0.691816  0.401697  1
  O  O7  1  0.178332  0.352631  0.068342  1
  O  O8  1  0.821668  0.647369  0.931658  1
  O  O9  1  0.147193  0.308184  0.598303  1
  O  O10  1  0.503973  0.009864  0.715097  1
