# generated using pymatgen
data_LiV6O7F5
_symmetry_space_group_name_H-M   'P 1'
_cell_length_a   6.58826425
_cell_length_b   7.00670221
_cell_length_c   9.28484091
_cell_angle_alpha   90.00061591
_cell_angle_beta   89.99913148
_cell_angle_gamma   90.04508690
_symmetry_Int_Tables_number   1
_chemical_formula_structural   LiV6O7F5
_chemical_formula_sum   'Li2 V12 O14 F10'
_cell_volume   428.60674596
_cell_formula_units_Z   2
loop_
 _symmetry_equiv_pos_site_id
 _symmetry_equiv_pos_as_xyz
  1  'x, y, z'
loop_
 _atom_site_type_symbol
 _atom_site_label
 _atom_site_symmetry_multiplicity
 _atom_site_fract_x
 _atom_site_fract_y
 _atom_site_fract_z
 _atom_site_occupancy
  Li  Li0  1  0.741839  0.248578  0.931266  1
  Li  Li1  1  0.241805  0.748569  0.402101  1
  V  V2  1  0.974172  0.020897  0.669295  1
  V  V3  1  0.503267  0.006661  0.166866  1
  V  V4  1  0.993756  0.024351  0.337354  1
  V  V5  1  0.013652  0.000201  0.995257  1
  V  V6  1  0.493783  0.524384  0.995987  1
  V  V7  1  0.513675  0.500219  0.338083  1
  V  V8  1  0.474215  0.520908  0.664053  1
  V  V9  1  0.014602  0.484747  0.839822  1
  V  V10  1  0.999409  0.463492  0.493526  1
  V  V11  1  0.003272  0.506639  0.166472  1
  V  V12  1  0.499378  0.963546  0.839794  1
  V  V13  1  0.514576  0.984754  0.493500  1
  O  O14  1  0.994261  0.198503  0.838242  1
  O  O15  1  0.995309  0.192892  0.503086  1
  O  O16  1  0.307453  0.995670  0.002259  1
  O  O17  1  0.301731  0.996326  0.332844  1
  O  O18  1  0.801770  0.496322  0.000489  1
  O  O19  1  0.807472  0.495638  0.331091  1
  O  O20  1  0.494252  0.698507  0.495103  1
  O  O21  1  0.495330  0.692923  0.830261  1
  O  O22  1  0.207640  0.501345  0.329862  1
  O  O23  1  0.203632  0.505694  0.006078  1
  O  O24  1  0.185461  0.501217  0.663021  1
  O  O25  1  0.707613  0.001359  0.003470  1
  O  O26  1  0.703606  0.005705  0.327267  1
  O  O27  1  0.685433  0.001232  0.670311  1
  F  F28  1  0.789304  0.490528  0.668106  1
  F  F29  1  0.499792  0.306212  0.834572  1
  F  F30  1  0.501703  0.300304  0.503572  1
  F  F31  1  0.506776  0.310158  0.163313  1
  F  F32  1  0.999732  0.806225  0.498770  1
  F  F33  1  0.001726  0.800286  0.829780  1
  F  F34  1  0.004625  0.202550  0.161515  1
  F  F35  1  0.504720  0.702616  0.171815  1
  F  F36  1  0.289280  0.990501  0.665108  1
  F  F37  1  0.006636  0.810169  0.170016  1
