# generated using pymatgen
data_Mg(NiO2)4
_symmetry_space_group_name_H-M   'P 1'
_cell_length_a   10.41805321
_cell_length_b   10.41805321
_cell_length_c   14.82738764
_cell_angle_alpha   18.40898288
_cell_angle_beta   18.40898288
_cell_angle_gamma   31.74396502
_symmetry_Int_Tables_number   1
_chemical_formula_structural   Mg(NiO2)4
_chemical_formula_sum   'Mg1 Ni4 O8'
_cell_volume   138.99099794
_cell_formula_units_Z   1
loop_
 _symmetry_equiv_pos_site_id
 _symmetry_equiv_pos_as_xyz
  1  'x, y, z'
loop_
 _atom_site_type_symbol
 _atom_site_label
 _atom_site_symmetry_multiplicity
 _atom_site_fract_x
 _atom_site_fract_y
 _atom_site_fract_z
 _atom_site_occupancy
  Mg  Mg0  1  0.000000  0.000000  0.500000  1
  Ni  Ni1  1  0.000000  0.500000  0.000000  1
  Ni  Ni2  1  0.000000  0.000000  0.000000  1
  Ni  Ni3  1  0.500000  0.500000  0.000000  1
  Ni  Ni4  1  0.500000  0.000000  0.000000  1
  O  O5  1  0.000000  0.460441  0.291414  1
  O  O6  1  1.000000  0.539559  0.708586  1
  O  O7  1  0.460441  0.460441  0.787704  1
  O  O8  1  0.000000  0.000000  0.269481  1
  O  O9  1  0.000000  0.000000  0.730519  1
  O  O10  1  0.539559  0.539559  0.212296  1
  O  O11  1  0.539559  1.000000  0.708586  1
  O  O12  1  0.460441  0.000000  0.291414  1
