# generated using pymatgen
data_Li2SbP(OF3)2
_symmetry_space_group_name_H-M   'P 1'
_cell_length_a   6.08697380
_cell_length_b   8.17248625
_cell_length_c   7.87126387
_cell_angle_alpha   88.15737708
_cell_angle_beta   102.21270134
_cell_angle_gamma   94.38284557
_symmetry_Int_Tables_number   1
_chemical_formula_structural   Li2SbP(OF3)2
_chemical_formula_sum   'Li4 Sb2 P2 O4 F12'
_cell_volume   381.52968903
_cell_formula_units_Z   2
loop_
 _symmetry_equiv_pos_site_id
 _symmetry_equiv_pos_as_xyz
  1  'x, y, z'
loop_
 _atom_site_type_symbol
 _atom_site_label
 _atom_site_symmetry_multiplicity
 _atom_site_fract_x
 _atom_site_fract_y
 _atom_site_fract_z
 _atom_site_occupancy
  Li  Li0  1  0.072757  0.955801  0.385976  1
  Li  Li1  1  0.292778  0.418875  0.064148  1
  Li  Li2  1  0.699486  0.590080  0.914778  1
  Li  Li3  1  0.897422  0.414586  0.647436  1
  Sb  Sb4  1  0.412374  0.214247  0.740052  1
  Sb  Sb5  1  0.569983  0.768080  0.241211  1
  P  P6  1  0.242899  0.791049  0.812637  1
  P  P7  1  0.776646  0.231321  0.196694  1
  O  O8  1  0.263055  0.973072  0.833225  1
  O  O9  1  0.414646  0.686240  0.916999  1
  O  O10  1  0.567378  0.280283  0.075446  1
  O  O11  1  0.827390  0.055955  0.226976  1
  F  F12  1  0.135441  0.392436  0.825533  1
  F  F13  1  0.214306  0.747805  0.616342  1
  F  F14  1  0.989353  0.326082  0.142731  1
  F  F15  1  0.235407  0.152443  0.496935  1
  F  F16  1  0.273706  0.858860  0.294438  1
  F  F17  1  0.410099  0.546980  0.271720  1
  F  F18  1  0.643551  0.444951  0.725317  1
  F  F19  1  0.675220  0.101139  0.705383  1
  F  F20  1  0.775891  0.762791  0.476426  1
  F  F21  1  0.002864  0.727382  0.844410  1
  F  F22  1  0.793981  0.314940  0.379694  1
  F  F23  1  0.799673  0.622319  0.150150  1
