# generated using pymatgen
data_Li3Fe4(Si3O10)2
_symmetry_space_group_name_H-M   'P 1'
_cell_length_a   5.49530675
_cell_length_b   5.51151757
_cell_length_c   16.64361893
_cell_angle_alpha   86.14323871
_cell_angle_beta   93.23638734
_cell_angle_gamma   119.37898269
_symmetry_Int_Tables_number   1
_chemical_formula_structural   Li3Fe4(Si3O10)2
_chemical_formula_sum   'Li3 Fe4 Si6 O20'
_cell_volume   438.10942142
_cell_formula_units_Z   1
loop_
 _symmetry_equiv_pos_site_id
 _symmetry_equiv_pos_as_xyz
  1  'x, y, z'
loop_
 _atom_site_type_symbol
 _atom_site_label
 _atom_site_symmetry_multiplicity
 _atom_site_fract_x
 _atom_site_fract_y
 _atom_site_fract_z
 _atom_site_occupancy
  Li  Li0  1  0.354129  0.846753  0.448044  1
  Li  Li1  1  0.817031  0.432091  0.732528  1
  Li  Li2  1  0.850136  0.359924  0.050674  1
  Fe  Fe3  1  0.993523  0.806100  0.583717  1
  Fe  Fe4  1  0.188018  0.006235  0.076842  1
  Fe  Fe5  1  0.807499  0.996174  0.918413  1
  Fe  Fe6  1  0.003083  0.182767  0.421175  1
  Si  Si7  1  0.132929  0.129742  0.750945  1
  Si  Si8  1  0.314365  0.464463  0.597284  1
  Si  Si9  1  0.472382  0.323351  0.900955  1
  Si  Si10  1  0.519530  0.676459  0.098709  1
  Si  Si11  1  0.675231  0.517630  0.400852  1
  Si  Si12  1  0.854909  0.855681  0.249411  1
  O  O13  1  0.057361  0.856571  0.701412  1
  O  O14  1  0.114244  0.954193  0.188717  1
  O  O15  1  0.173690  0.389955  0.687064  1
  O  O16  1  0.517765  0.634239  0.905993  1
  O  O17  1  0.106741  0.187560  0.544528  1
  O  O18  1  0.192216  0.095990  0.951722  1
  O  O19  1  0.290365  0.733427  0.560673  1
  O  O20  1  0.233836  0.682213  0.066728  1
  O  O21  1  0.374493  0.506645  0.410834  1
  O  O22  1  0.430493  0.237357  0.804659  1
  O  O23  1  0.575489  0.775541  0.191846  1
  O  O24  1  0.629035  0.506169  0.605516  1
  O  O25  1  0.734982  0.291725  0.939094  1
  O  O26  1  0.678622  0.230266  0.433104  1
  O  O27  1  0.797507  0.926053  0.048935  1
  O  O28  1  0.917351  0.789523  0.451351  1
  O  O29  1  0.507940  0.377616  0.087064  1
  O  O30  1  0.780390  0.576816  0.307586  1
  O  O31  1  0.891673  0.106346  0.807910  1
  O  O32  1  0.950772  0.113583  0.308535  1
