# generated using pymatgen
data_LiV2(CO3)4
_symmetry_space_group_name_H-M   'P 1'
_cell_length_a   6.12293767
_cell_length_b   6.12293689
_cell_length_c   5.99683107
_cell_angle_alpha   77.46705122
_cell_angle_beta   102.53295552
_cell_angle_gamma   90.33528263
_symmetry_Int_Tables_number   1
_chemical_formula_structural   LiV2(CO3)4
_chemical_formula_sum   'Li1 V2 C4 O12'
_cell_volume   214.03584775
_cell_formula_units_Z   1
loop_
 _symmetry_equiv_pos_site_id
 _symmetry_equiv_pos_as_xyz
  1  'x, y, z'
loop_
 _atom_site_type_symbol
 _atom_site_label
 _atom_site_symmetry_multiplicity
 _atom_site_fract_x
 _atom_site_fract_y
 _atom_site_fract_z
 _atom_site_occupancy
  Li  Li0  1  0.598517  0.598517  0.250000  1
  V  V1  1  0.198998  0.198998  0.250000  1
  V  V2  1  0.805193  0.805193  0.750000  1
  C  C3  1  0.110273  0.696178  0.202621  1
  C  C4  1  0.308971  0.882168  0.712355  1
  C  C5  1  0.696178  0.110273  0.297379  1
  C  C6  1  0.882168  0.308971  0.787645  1
  O  O7  1  0.079627  0.312625  0.930293  1
  O  O8  1  0.121914  0.798053  0.727810  1
  O  O9  1  0.198516  0.886214  0.205701  1
  O  O10  1  0.241827  0.518899  0.293841  1
  O  O11  1  0.312625  0.079627  0.569707  1
  O  O12  1  0.493051  0.780262  0.830877  1
  O  O13  1  0.518899  0.241827  0.206159  1
  O  O14  1  0.678385  0.901968  0.397735  1
  O  O15  1  0.780262  0.493051  0.669123  1
  O  O16  1  0.798053  0.121914  0.772190  1
  O  O17  1  0.886214  0.198516  0.294299  1
  O  O18  1  0.901968  0.678385  0.102265  1
