# generated using pymatgen
data_Li2NbVO4
_symmetry_space_group_name_H-M   'P 1'
_cell_length_a   6.08745313
_cell_length_b   6.08745355
_cell_length_c   6.33398143
_cell_angle_alpha   121.41869394
_cell_angle_beta   121.41869131
_cell_angle_gamma   89.33377481
_symmetry_Int_Tables_number   1
_chemical_formula_structural   Li2NbVO4
_chemical_formula_sum   'Li4 Nb2 V2 O8'
_cell_volume   159.66091291
_cell_formula_units_Z   2
loop_
 _symmetry_equiv_pos_site_id
 _symmetry_equiv_pos_as_xyz
  1  'x, y, z'
loop_
 _atom_site_type_symbol
 _atom_site_label
 _atom_site_symmetry_multiplicity
 _atom_site_fract_x
 _atom_site_fract_y
 _atom_site_fract_z
 _atom_site_occupancy
  Li  Li0  1  0.000000  0.500000  0.500000  1
  Li  Li1  1  0.500000  0.500000  0.500000  1
  Li  Li2  1  0.500000  0.000000  0.000000  1
  Li  Li3  1  0.500000  0.500000  0.000000  1
  Nb  Nb4  1  0.000000  0.500000  0.000000  1
  Nb  Nb5  1  0.500000  0.000000  0.500000  1
  V  V6  1  0.000000  0.000000  0.500000  1
  V  V7  1  0.000000  0.000000  0.000000  1
  O  O8  1  0.250301  0.748341  0.996973  1
  O  O9  1  0.259986  0.233785  0.497351  1
  O  O10  1  0.251659  0.749699  0.503027  1
  O  O11  1  0.766215  0.740014  0.002649  1
  O  O12  1  0.233785  0.259986  0.997351  1
  O  O13  1  0.748341  0.250301  0.496973  1
  O  O14  1  0.740014  0.766215  0.502649  1
  O  O15  1  0.749699  0.251659  0.003027  1
