# generated using pymatgen
data_Li3Co2Cu3O10
_symmetry_space_group_name_H-M   'P 1'
_cell_length_a   5.02856422
_cell_length_b   5.26543393
_cell_length_c   7.44476339
_cell_angle_alpha   108.86127200
_cell_angle_beta   99.67486726
_cell_angle_gamma   102.50922246
_symmetry_Int_Tables_number   1
_chemical_formula_structural   Li3Co2Cu3O10
_chemical_formula_sum   'Li3 Co2 Cu3 O10'
_cell_volume   175.95575991
_cell_formula_units_Z   1
loop_
 _symmetry_equiv_pos_site_id
 _symmetry_equiv_pos_as_xyz
  1  'x, y, z'
loop_
 _atom_site_type_symbol
 _atom_site_label
 _atom_site_symmetry_multiplicity
 _atom_site_fract_x
 _atom_site_fract_y
 _atom_site_fract_z
 _atom_site_occupancy
  Li  Li0  1  0.215490  0.912200  0.404507  1
  Li  Li1  1  0.500000  0.500000  0.500000  1
  Li  Li2  1  0.784510  0.087800  0.595493  1
  Co  Co3  1  0.111812  0.693251  0.693649  1
  Co  Co4  1  0.888188  0.306749  0.306351  1
  Cu  Cu5  1  0.000000  0.500000  0.000000  1
  Cu  Cu6  1  0.697212  0.882453  0.903023  1
  Cu  Cu7  1  0.302788  0.117547  0.096977  1
  O  O8  1  0.051807  0.040965  0.834565  1
  O  O9  1  0.318498  0.733575  0.953038  1
  O  O10  1  0.109343  0.330807  0.545496  1
  O  O11  1  0.211108  0.469218  0.227227  1
  O  O12  1  0.445291  0.857498  0.657681  1
  O  O13  1  0.554709  0.142502  0.342319  1
  O  O14  1  0.788892  0.530782  0.772773  1
  O  O15  1  0.890657  0.669193  0.454504  1
  O  O16  1  0.681502  0.266425  0.046962  1
  O  O17  1  0.948193  0.959035  0.165435  1
