# generated using pymatgen
data_LiVF4
_symmetry_space_group_name_H-M   'P 1'
_cell_length_a   6.28182656
_cell_length_b   9.96829733
_cell_length_c   4.75222393
_cell_angle_alpha   90.00000000
_cell_angle_beta   89.57098703
_cell_angle_gamma   90.00000000
_symmetry_Int_Tables_number   1
_chemical_formula_structural   LiVF4
_chemical_formula_sum   'Li4 V4 F16'
_cell_volume   297.57171417
_cell_formula_units_Z   4
loop_
 _symmetry_equiv_pos_site_id
 _symmetry_equiv_pos_as_xyz
  1  'x, y, z'
loop_
 _atom_site_type_symbol
 _atom_site_label
 _atom_site_symmetry_multiplicity
 _atom_site_fract_x
 _atom_site_fract_y
 _atom_site_fract_z
 _atom_site_occupancy
  Li  Li0  1  0.248920  0.283889  0.973342  1
  Li  Li1  1  0.251080  0.783889  0.526658  1
  Li  Li2  1  0.748920  0.216111  0.473342  1
  Li  Li3  1  0.751080  0.716111  0.026658  1
  V  V4  1  0.000000  0.500000  0.500000  1
  V  V5  1  0.000000  0.000000  0.000000  1
  V  V6  1  0.500000  0.500000  0.500000  1
  V  V7  1  0.500000  0.000000  0.000000  1
  F  F8  1  0.012668  0.849564  0.754208  1
  F  F9  1  0.990211  0.651614  0.256988  1
  F  F10  1  0.244422  0.090816  0.811669  1
  F  F11  1  0.255578  0.590816  0.688331  1
  F  F12  1  0.244448  0.421536  0.281614  1
  F  F13  1  0.255552  0.921536  0.218386  1
  F  F14  1  0.487332  0.349564  0.745792  1
  F  F15  1  0.490211  0.848386  0.756988  1
  F  F16  1  0.509789  0.151614  0.243012  1
  F  F17  1  0.512668  0.650436  0.254208  1
  F  F18  1  0.744448  0.078464  0.781614  1
  F  F19  1  0.755552  0.578464  0.718386  1
  F  F20  1  0.744422  0.409184  0.311669  1
  F  F21  1  0.755578  0.909184  0.188331  1
  F  F22  1  0.009789  0.348386  0.743012  1
  F  F23  1  0.987332  0.150436  0.245792  1
