# generated using pymatgen
data_LiFe4(BO3)4
_symmetry_space_group_name_H-M   'P 1'
_cell_length_a   5.20461741
_cell_length_b   9.22328682
_cell_length_c   10.20200406
_cell_angle_alpha   90.78782934
_cell_angle_beta   89.37936777
_cell_angle_gamma   89.43324241
_symmetry_Int_Tables_number   1
_chemical_formula_structural   LiFe4(BO3)4
_chemical_formula_sum   'Li2 Fe8 B8 O24'
_cell_volume   489.63401578
_cell_formula_units_Z   2
loop_
 _symmetry_equiv_pos_site_id
 _symmetry_equiv_pos_as_xyz
  1  'x, y, z'
loop_
 _atom_site_type_symbol
 _atom_site_label
 _atom_site_symmetry_multiplicity
 _atom_site_fract_x
 _atom_site_fract_y
 _atom_site_fract_z
 _atom_site_occupancy
  Li  Li0  1  0.842122  0.823673  0.651398  1
  Li  Li1  1  0.657484  0.671571  0.368479  1
  Fe  Fe2  1  0.836472  0.168999  0.627856  1
  Fe  Fe3  1  0.830009  0.491459  0.128867  1
  Fe  Fe4  1  0.675730  0.010497  0.879326  1
  Fe  Fe5  1  0.671200  0.329934  0.377929  1
  Fe  Fe6  1  0.332410  0.655601  0.625944  1
  Fe  Fe7  1  0.337227  0.993817  0.132307  1
  Fe  Fe8  1  0.161904  0.847435  0.382041  1
  Fe  Fe9  1  0.164945  0.507093  0.875398  1
  B  B10  1  0.843310  0.501432  0.621065  1
  B  B11  1  0.840484  0.166145  0.127984  1
  B  B12  1  0.653033  -0.000917  0.384540  1
  B  B13  1  0.664202  0.335756  0.876688  1
  B  B14  1  0.329648  0.996576  0.634348  1
  B  B15  1  0.322492  0.666777  0.133698  1
  B  B16  1  0.175329  0.505860  0.373305  1
  B  B17  1  0.183828  0.833652  0.874826  1
  O  O18  1  0.912528  0.499915  0.333953  1
  O  O19  1  0.930813  0.864945  0.849658  1
  O  O20  1  0.776637  0.207428  0.824718  1
  O  O21  1  0.754060  0.130474  0.433783  1
  O  O22  1  0.778237  0.870190  0.400617  1
  O  O23  1  0.826333  0.436653  0.936476  1
  O  O24  1  0.714870  0.628765  0.601296  1
  O  O25  1  0.675282  0.064967  0.071170  1
  O  O26  1  0.751119  0.368089  0.571900  1
  O  O27  1  0.729788  0.293892  0.181510  1
  O  O28  1  0.574140  0.634941  0.161115  1
  O  O29  1  0.593365  0.998861  0.673513  1
  O  O30  1  0.416446  0.005577  0.323523  1
  O  O31  1  0.411832  0.359578  0.869292  1
  O  O32  1  0.293098  0.701211  0.838906  1
  O  O33  1  0.271570  0.636505  0.415892  1
  O  O34  1  0.326145  0.383988  0.368128  1
  O  O35  1  0.341377  0.938243  0.931921  1
  O  O36  1  0.166165  0.561652  0.075279  1
  O  O37  1  0.185580  0.121089  0.637722  1
  O  O38  1  0.224969  0.866867  0.593748  1
  O  O39  1  0.212613  0.799249  0.168020  1
  O  O40  1  0.093168  0.142780  0.130464  1
  O  O41  1  0.076267  0.499452  0.685325  1
