# generated using pymatgen
data_Mn7Cr12O48
_symmetry_space_group_name_H-M   'P 1'
_cell_length_a   4.99614841
_cell_length_b   10.28859646
_cell_length_c   17.40119075
_cell_angle_alpha   90.08544058
_cell_angle_beta   89.88854680
_cell_angle_gamma   90.25712955
_symmetry_Int_Tables_number   1
_chemical_formula_structural   Mn7Cr12O48
_chemical_formula_sum   'Mn7 Cr12 O48'
_cell_volume   894.46789941
_cell_formula_units_Z   1
loop_
 _symmetry_equiv_pos_site_id
 _symmetry_equiv_pos_as_xyz
  1  'x, y, z'
loop_
 _atom_site_type_symbol
 _atom_site_label
 _atom_site_symmetry_multiplicity
 _atom_site_fract_x
 _atom_site_fract_y
 _atom_site_fract_z
 _atom_site_occupancy
  Mn  Mn0  1  0.172765  0.752969  0.292089  1
  Mn  Mn1  1  0.237764  0.060796  0.975209  1
  Mn  Mn2  1  0.408499  0.747408  0.750627  1
  Mn  Mn3  1  0.599718  0.249493  0.246444  1
  Mn  Mn4  1  0.764209  0.062311  0.528607  1
  Mn  Mn5  1  0.767275  0.437118  0.528395  1
  Mn  Mn6  1  0.764069  0.563737  0.018589  1
  Cr  Cr7  1  0.228670  0.750400  0.940749  1
  Cr  Cr8  1  0.229462  0.025758  0.653510  1
  Cr  Cr9  1  0.228355  0.474721  0.654050  1
  Cr  Cr10  1  0.299330  0.524976  0.152648  1
  Cr  Cr11  1  0.292861  0.978539  0.155430  1
  Cr  Cr12  1  0.282292  0.248557  0.449827  1
  Cr  Cr13  1  0.709196  0.751275  0.562651  1
  Cr  Cr14  1  0.710805  0.480992  0.842734  1
  Cr  Cr15  1  0.709483  0.022519  0.848714  1
  Cr  Cr16  1  0.765005  0.526109  0.345437  1
  Cr  Cr17  1  0.764138  0.972735  0.346131  1
  Cr  Cr18  1  0.771398  0.242542  0.049856  1
  O  O19  1  0.049344  0.223610  0.993138  1
  O  O20  1  0.050953  0.610984  0.360661  1
  O  O21  1  0.049130  0.888640  0.363192  1
  O  O22  1  0.128930  0.627319  0.209839  1
  O  O23  1  0.103717  0.881825  0.212789  1
  O  O24  1  0.090166  0.119330  0.469644  1
  O  O25  1  0.097428  0.377904  0.469324  1
  O  O26  1  0.103120  0.009483  0.075894  1
  O  O27  1  0.091207  0.492471  0.082229  1
  O  O28  1  0.179386  0.749618  0.844049  1
  O  O29  1  0.186851  0.620260  0.701155  1
  O  O30  1  0.187034  0.883699  0.700727  1
  O  O31  1  0.369425  0.117991  0.203816  1
  O  O32  1  0.378988  0.387628  0.199391  1
  O  O33  1  0.357872  0.249378  0.358610  1
  O  O34  1  0.428841  0.498750  0.578044  1
  O  O35  1  0.437014  0.002003  0.577474  1
  O  O36  1  0.394179  0.888649  0.966181  1
  O  O37  1  0.435423  0.632839  0.962014  1
  O  O38  1  0.376258  0.124765  0.709301  1
  O  O39  1  0.382446  0.376164  0.707838  1
  O  O40  1  0.432975  0.104727  0.883120  1
  O  O41  1  0.453133  0.397595  0.868427  1
  O  O42  1  0.456638  0.749107  0.506336  1
  O  O43  1  0.575755  0.246921  0.507693  1
  O  O44  1  0.571824  0.600656  0.117383  1
  O  O45  1  0.555090  0.901505  0.130997  1
  O  O46  1  0.562081  0.620125  0.298670  1
  O  O47  1  0.559850  0.877682  0.299533  1
  O  O48  1  0.550370  0.122834  0.032377  1
  O  O49  1  0.621273  0.380961  0.028480  1
  O  O50  1  0.612247  0.009728  0.429721  1
  O  O51  1  0.615542  0.488895  0.429214  1
  O  O52  1  0.625447  0.752616  0.657676  1
  O  O53  1  0.630796  0.623635  0.793418  1
  O  O54  1  0.623090  0.884597  0.801975  1
  O  O55  1  0.816664  0.112093  0.296997  1
  O  O56  1  0.816462  0.386932  0.295244  1
  O  O57  1  0.838714  0.242652  0.142583  1
  O  O58  1  0.908697  0.513637  0.924220  1
  O  O59  1  0.930447  0.991319  0.922166  1
  O  O60  1  0.903180  0.622108  0.541553  1
  O  O61  1  0.903794  0.885050  0.540326  1
  O  O62  1  0.858321  0.117863  0.790739  1
  O  O63  1  0.902377  0.393111  0.790260  1
  O  O64  1  0.937202  0.101915  0.622089  1
  O  O65  1  0.935498  0.398827  0.622497  1
  O  O66  1  0.954745  0.735050  0.995768  1
