# generated using pymatgen
data_Li4TiNi5(PO4)6
_symmetry_space_group_name_H-M   'P 1'
_cell_length_a   8.38947782
_cell_length_b   8.77276555
_cell_length_c   8.75454939
_cell_angle_alpha   60.08643356
_cell_angle_beta   59.12773511
_cell_angle_gamma   59.19600029
_symmetry_Int_Tables_number   1
_chemical_formula_structural   Li4TiNi5(PO4)6
_chemical_formula_sum   'Li4 Ti1 Ni5 P6 O24'
_cell_volume   450.03450319
_cell_formula_units_Z   1
loop_
 _symmetry_equiv_pos_site_id
 _symmetry_equiv_pos_as_xyz
  1  'x, y, z'
loop_
 _atom_site_type_symbol
 _atom_site_label
 _atom_site_symmetry_multiplicity
 _atom_site_fract_x
 _atom_site_fract_y
 _atom_site_fract_z
 _atom_site_occupancy
  Li  Li0  1  0.254823  0.850849  0.642311  1
  Li  Li1  1  0.786672  0.151028  0.349025  1
  Li  Li2  1  0.787031  0.710637  0.147360  1
  Li  Li3  1  0.789065  0.354262  0.710731  1
  Ti  Ti4  1  0.550204  0.152248  0.149693  1
  Ni  Ni5  1  0.009651  0.999118  0.000385  1
  Ni  Ni6  1  0.070916  0.642509  0.645223  1
  Ni  Ni7  1  0.497774  0.497157  0.498027  1
  Ni  Ni8  1  0.433755  0.853550  0.855534  1
  Ni  Ni9  1  0.939121  0.352897  0.352569  1
  P  P10  1  0.240204  0.257101  0.556426  1
  P  P11  1  0.241124  0.950634  0.249209  1
  P  P12  1  0.240449  0.555925  0.951390  1
  P  P13  1  0.748580  0.454284  0.043309  1
  P  P14  1  0.762033  0.041454  0.751457  1
  P  P15  1  0.735661  0.754707  0.456812  1
  O  O16  1  0.050201  0.103384  0.316838  1
  O  O17  1  0.049930  0.524902  0.104001  1
  O  O18  1  0.048435  0.329417  0.522948  1
  O  O19  1  0.224031  0.091924  0.742696  1
  O  O20  1  0.417852  0.186353  0.386072  1
  O  O21  1  0.284480  0.406510  0.556751  1
  O  O22  1  0.226445  0.926375  0.095630  1
  O  O23  1  0.285374  0.764453  0.410237  1
  O  O24  1  0.563201  0.599081  0.002835  1
  O  O25  1  0.287258  0.562621  0.752298  1
  O  O26  1  0.769133  0.244795  0.082540  1
  O  O27  1  0.590295  0.982504  0.822681  1
  O  O28  1  0.420005  0.015783  0.175737  1
  O  O29  1  0.219689  0.752985  0.925632  1
  O  O30  1  0.721866  0.437531  0.244108  1
  O  O31  1  0.419132  0.387931  0.011062  1
  O  O32  1  0.728759  0.239752  0.593570  1
  O  O33  1  0.768910  0.085994  0.905336  1
  O  O34  1  0.724185  0.593338  0.432804  1
  O  O35  1  0.535212  0.824298  0.599462  1
  O  O36  1  0.763061  0.906429  0.249302  1
  O  O37  1  0.911413  0.704575  0.500505  1
  O  O38  1  0.939576  0.479208  0.890713  1
  O  O39  1  0.964488  0.894494  0.693782  1
