# generated using pymatgen
data_Li3Fe5(NiO6)2
_symmetry_space_group_name_H-M   'P 1'
_cell_length_a   5.12378747
_cell_length_b   5.12378739
_cell_length_c   9.69906155
_cell_angle_alpha   85.61577179
_cell_angle_beta   94.38422416
_cell_angle_gamma   61.25362333
_symmetry_Int_Tables_number   1
_chemical_formula_structural   Li3Fe5(NiO6)2
_chemical_formula_sum   'Li3 Fe5 Ni2 O12'
_cell_volume   220.72218220
_cell_formula_units_Z   1
loop_
 _symmetry_equiv_pos_site_id
 _symmetry_equiv_pos_as_xyz
  1  'x, y, z'
loop_
 _atom_site_type_symbol
 _atom_site_label
 _atom_site_symmetry_multiplicity
 _atom_site_fract_x
 _atom_site_fract_y
 _atom_site_fract_z
 _atom_site_occupancy
  Li  Li0  1  0.329847  0.850630  0.996413  1
  Li  Li1  1  0.850630  0.329847  0.503587  1
  Li  Li2  1  0.917333  0.917333  0.750000  1
  Fe  Fe3  1  0.078876  0.078876  0.250000  1
  Fe  Fe4  1  0.420060  0.420060  0.250000  1
  Fe  Fe5  1  0.573155  0.573155  0.750000  1
  Fe  Fe6  1  0.503497  0.996341  0.504310  1
  Fe  Fe7  1  0.996341  0.503497  0.995690  1
  Ni  Ni8  1  0.253315  0.253315  0.750000  1
  Ni  Ni9  1  0.755324  0.755324  0.250000  1
  O  O10  1  0.144745  0.348870  0.371862  1
  O  O11  1  0.348870  0.144745  0.128138  1
  O  O12  1  0.068163  0.765808  0.130064  1
  O  O13  1  0.279395  0.536960  0.858022  1
  O  O14  1  0.536960  0.279395  0.641978  1
  O  O15  1  0.228014  0.983579  0.635876  1
  O  O16  1  0.452036  0.731808  0.366040  1
  O  O17  1  0.765808  0.068163  0.369936  1
  O  O18  1  0.630332  0.821590  0.872030  1
  O  O19  1  0.731808  0.452036  0.133960  1
  O  O20  1  0.983579  0.228014  0.864124  1
  O  O21  1  0.821590  0.630332  0.627970  1
