# generated using pymatgen
data_Li3Cr3(CuO6)2
_symmetry_space_group_name_H-M   'P 1'
_cell_length_a   8.84222041
_cell_length_b   12.56990205
_cell_length_c   9.17873250
_cell_angle_alpha   90.00000000
_cell_angle_beta   90.00000000
_cell_angle_gamma   92.58055338
_symmetry_Int_Tables_number   1
_chemical_formula_structural   Li3Cr3(CuO6)2
_chemical_formula_sum   'Li12 Cr12 Cu8 O48'
_cell_volume   1019.14342157
_cell_formula_units_Z   4
loop_
 _symmetry_equiv_pos_site_id
 _symmetry_equiv_pos_as_xyz
  1  'x, y, z'
loop_
 _atom_site_type_symbol
 _atom_site_label
 _atom_site_symmetry_multiplicity
 _atom_site_fract_x
 _atom_site_fract_y
 _atom_site_fract_z
 _atom_site_occupancy
  Li  Li0  1  0.073366  0.697500  0.087737  1
  Li  Li1  1  0.059546  0.343621  0.507170  1
  Li  Li2  1  0.179792  0.178261  0.773690  1
  Li  Li3  1  0.320208  0.321739  0.273690  1
  Li  Li4  1  0.426634  0.802500  0.587737  1
  Li  Li5  1  0.440454  0.156379  0.007170  1
  Li  Li6  1  0.559546  0.843621  0.992830  1
  Li  Li7  1  0.573366  0.197500  0.412263  1
  Li  Li8  1  0.679792  0.678261  0.726310  1
  Li  Li9  1  0.820208  0.821739  0.226310  1
  Li  Li10  1  0.940454  0.656379  0.492830  1
  Li  Li11  1  0.926634  0.302500  0.912263  1
  Cr  Cr12  1  0.045434  0.492123  0.249768  1
  Cr  Cr13  1  0.116010  0.852888  0.376389  1
  Cr  Cr14  1  0.115490  0.147838  0.112535  1
  Cr  Cr15  1  0.383990  0.647112  0.876389  1
  Cr  Cr16  1  0.384510  0.352162  0.612535  1
  Cr  Cr17  1  0.454566  0.007877  0.749768  1
  Cr  Cr18  1  0.545434  0.992123  0.250232  1
  Cr  Cr19  1  0.615490  0.647838  0.387465  1
  Cr  Cr20  1  0.616010  0.352888  0.123611  1
  Cr  Cr21  1  0.884510  0.852162  0.887465  1
  Cr  Cr22  1  0.883990  0.147112  0.623611  1
  Cr  Cr23  1  0.954566  0.507877  0.750232  1
  Cu  Cu24  1  0.246714  0.895204  0.026986  1
  Cu  Cu25  1  0.253286  0.604796  0.526986  1
  Cu  Cu26  1  0.253970  0.386147  0.964290  1
  Cu  Cu27  1  0.246030  0.113853  0.464290  1
  Cu  Cu28  1  0.753970  0.886147  0.535710  1
  Cu  Cu29  1  0.746030  0.613853  0.035710  1
  Cu  Cu30  1  0.746714  0.395204  0.473014  1
  Cu  Cu31  1  0.753286  0.104796  0.973014  1
  O  O32  1  0.048996  0.444582  0.878768  1
  O  O33  1  0.057173  0.906588  0.885936  1
  O  O34  1  0.059095  0.603554  0.665077  1
  O  O35  1  0.063261  0.194537  0.580087  1
  O  O36  1  0.101766  0.588225  0.370215  1
  O  O37  1  0.126199  0.835703  0.192281  1
  O  O38  1  0.133537  0.980284  0.416925  1
  O  O39  1  0.120885  0.248240  0.985786  1
  O  O40  1  0.170602  0.195897  0.276955  1
  O  O41  1  0.197527  0.435903  0.178933  1
  O  O42  1  0.242524  0.785051  0.467819  1
  O  O43  1  0.257476  0.714949  0.967819  1
  O  O44  1  0.245430  0.063305  0.055566  1
  O  O45  1  0.254570  0.436695  0.555566  1
  O  O46  1  0.302473  0.064097  0.678933  1
  O  O47  1  0.329398  0.304103  0.776955  1
  O  O48  1  0.366463  0.519716  0.916925  1
  O  O49  1  0.379115  0.251760  0.485786  1
  O  O50  1  0.373801  0.664297  0.692281  1
  O  O51  1  0.398234  0.911775  0.870215  1
  O  O52  1  0.440905  0.896446  0.165077  1
  O  O53  1  0.442827  0.593412  0.385936  1
  O  O54  1  0.436739  0.305463  0.080087  1
  O  O55  1  0.451004  0.055418  0.378768  1
  O  O56  1  0.548996  0.944582  0.621232  1
  O  O57  1  0.563261  0.694537  0.919913  1
  O  O58  1  0.557173  0.406588  0.614064  1
  O  O59  1  0.559095  0.103554  0.834923  1
  O  O60  1  0.601766  0.088225  0.129785  1
  O  O61  1  0.626199  0.335703  0.307719  1
  O  O62  1  0.620885  0.748240  0.514214  1
  O  O63  1  0.633537  0.480284  0.083075  1
  O  O64  1  0.670602  0.695897  0.223045  1
  O  O65  1  0.697527  0.935903  0.321067  1
  O  O66  1  0.745430  0.563305  0.444434  1
  O  O67  1  0.754570  0.936695  0.944434  1
  O  O68  1  0.742524  0.285051  0.032181  1
  O  O69  1  0.757476  0.214949  0.532181  1
  O  O70  1  0.802473  0.564097  0.821067  1
  O  O71  1  0.829398  0.804103  0.723045  1
  O  O72  1  0.879115  0.751760  0.014214  1
  O  O73  1  0.866463  0.019716  0.583075  1
  O  O74  1  0.873801  0.164297  0.807719  1
  O  O75  1  0.898234  0.411775  0.629785  1
  O  O76  1  0.936739  0.805463  0.419913  1
  O  O77  1  0.940905  0.396446  0.334923  1
  O  O78  1  0.942827  0.093412  0.114064  1
  O  O79  1  0.951004  0.555418  0.121232  1
