# generated using pymatgen
data_FeH12(SO7)2
_symmetry_space_group_name_H-M   'P 1'
_cell_length_a   9.03744112
_cell_length_b   12.55050973
_cell_length_c   6.28916925
_cell_angle_alpha   90.00000000
_cell_angle_beta   107.32641647
_cell_angle_gamma   90.00000000
_symmetry_Int_Tables_number   1
_chemical_formula_structural   FeH12(SO7)2
_chemical_formula_sum   'Fe2 H24 S4 O28'
_cell_volume   680.97676032
_cell_formula_units_Z   2
loop_
 _symmetry_equiv_pos_site_id
 _symmetry_equiv_pos_as_xyz
  1  'x, y, z'
loop_
 _atom_site_type_symbol
 _atom_site_label
 _atom_site_symmetry_multiplicity
 _atom_site_fract_x
 _atom_site_fract_y
 _atom_site_fract_z
 _atom_site_occupancy
  Fe  Fe0  1  0.000000  0.000000  0.000000  1
  Fe  Fe1  1  0.500000  0.500000  0.000000  1
  H  H2  1  0.101845  0.060770  0.665387  1
  H  H3  1  0.035600  0.860188  0.323306  1
  H  H4  1  0.221223  0.405340  0.936784  1
  H  H5  1  0.259388  0.633672  0.913548  1
  H  H6  1  0.354484  0.315002  0.996426  1
  H  H7  1  0.211481  0.099218  0.324938  1
  H  H8  1  0.288519  0.599218  0.675062  1
  H  H9  1  0.145516  0.815002  0.003574  1
  H  H10  1  0.240612  0.133672  0.086452  1
  H  H11  1  0.278777  0.905340  0.063216  1
  H  H12  1  0.464400  0.360188  0.676694  1
  H  H13  1  0.398155  0.560770  0.334613  1
  H  H14  1  0.601845  0.439230  0.665387  1
  H  H15  1  0.535600  0.639812  0.323306  1
  H  H16  1  0.721223  0.094660  0.936784  1
  H  H17  1  0.759388  0.866328  0.913548  1
  H  H18  1  0.854484  0.184998  0.996426  1
  H  H19  1  0.711481  0.400782  0.324938  1
  H  H20  1  0.788519  0.900782  0.675062  1
  H  H21  1  0.645516  0.684998  0.003574  1
  H  H22  1  0.740612  0.366328  0.086452  1
  H  H23  1  0.778777  0.594660  0.063216  1
  H  H24  1  0.964400  0.139812  0.676694  1
  H  H25  1  0.898155  0.939230  0.334613  1
  S  S26  1  0.106179  0.646647  0.257747  1
  S  S27  1  0.393821  0.146647  0.742253  1
  S  S28  1  0.606179  0.853353  0.257747  1
  S  S29  1  0.893821  0.353353  0.742253  1
  O  O30  1  0.003383  0.064251  0.708222  1
  O  O31  1  0.035415  0.419875  0.807211  1
  O  O32  1  0.165247  0.892803  0.987836  1
  O  O33  1  0.079027  0.738068  0.390732  1
  O  O34  1  0.145446  0.685709  0.055789  1
  O  O35  1  0.163547  0.106635  0.159676  1
  O  O36  1  0.262647  0.081735  0.600190  1
  O  O37  1  0.237353  0.581735  0.399810  1
  O  O38  1  0.336453  0.606635  0.840324  1
  O  O39  1  0.354554  0.185709  0.944211  1
  O  O40  1  0.420973  0.238068  0.609268  1
  O  O41  1  0.334753  0.392803  0.012164  1
  O  O42  1  0.503383  0.435749  0.708222  1
  O  O43  1  0.535415  0.080125  0.807211  1
  O  O44  1  0.464585  0.919875  0.192789  1
  O  O45  1  0.496617  0.564251  0.291778  1
  O  O46  1  0.665247  0.607197  0.987836  1
  O  O47  1  0.579027  0.761932  0.390732  1
  O  O48  1  0.645446  0.814291  0.055789  1
  O  O49  1  0.663547  0.393365  0.159676  1
  O  O50  1  0.762647  0.418265  0.600190  1
  O  O51  1  0.737353  0.918265  0.399810  1
  O  O52  1  0.836453  0.893365  0.840324  1
  O  O53  1  0.854554  0.314291  0.944211  1
  O  O54  1  0.920973  0.261932  0.609268  1
  O  O55  1  0.834753  0.107197  0.012164  1
  O  O56  1  0.964585  0.580125  0.192789  1
  O  O57  1  0.996617  0.935749  0.291778  1
