# generated using pymatgen
data_Li3MnFeCo(PO4)3
_symmetry_space_group_name_H-M   'P 1'
_cell_length_a   10.44457226
_cell_length_b   6.09919908
_cell_length_c   14.30946357
_cell_angle_alpha   90.00000000
_cell_angle_beta   90.09860348
_cell_angle_gamma   90.00000000
_symmetry_Int_Tables_number   1
_chemical_formula_structural   Li3MnFeCo(PO4)3
_chemical_formula_sum   'Li12 Mn4 Fe4 Co4 P12 O48'
_cell_volume   911.56192814
_cell_formula_units_Z   4
loop_
 _symmetry_equiv_pos_site_id
 _symmetry_equiv_pos_as_xyz
  1  'x, y, z'
loop_
 _atom_site_type_symbol
 _atom_site_label
 _atom_site_symmetry_multiplicity
 _atom_site_fract_x
 _atom_site_fract_y
 _atom_site_fract_z
 _atom_site_occupancy
  Li  Li0  1  0.996591  0.499667  0.667528  1
  Li  Li1  1  0.998639  0.001453  0.999310  1
  Li  Li2  1  0.998639  0.498547  0.999310  1
  Li  Li3  1  0.999550  0.000332  0.333116  1
  Li  Li4  1  0.999550  0.499668  0.333116  1
  Li  Li5  1  0.996591  0.000333  0.667528  1
  Li  Li6  1  0.501622  0.000478  0.500570  1
  Li  Li7  1  0.501622  0.499522  0.500570  1
  Li  Li8  1  0.500968  0.000482  0.166791  1
  Li  Li9  1  0.500968  0.499518  0.166791  1
  Li  Li10  1  0.503091  0.999282  0.833044  1
  Li  Li11  1  0.503091  0.500718  0.833044  1
  Mn  Mn12  1  0.218193  0.750000  0.492916  1
  Mn  Mn13  1  0.218317  0.750000  0.825759  1
  Mn  Mn14  1  0.281520  0.250000  0.659822  1
  Mn  Mn15  1  0.719162  0.750000  0.007305  1
  Fe  Fe16  1  0.218029  0.750000  0.158572  1
  Fe  Fe17  1  0.281827  0.250000  0.992759  1
  Fe  Fe18  1  0.281898  0.250000  0.325039  1
  Fe  Fe19  1  0.719074  0.750000  0.341287  1
  Co  Co20  1  0.723520  0.750000  0.670891  1
  Co  Co21  1  0.777700  0.250000  0.840346  1
  Co  Co22  1  0.778263  0.250000  0.504688  1
  Co  Co23  1  0.781633  0.250000  0.173207  1
  P  P24  1  0.091300  0.250000  0.806243  1
  P  P25  1  0.094093  0.250000  0.139740  1
  P  P26  1  0.091528  0.250000  0.471312  1
  P  P27  1  0.406550  0.750000  0.305737  1
  P  P28  1  0.410703  0.750000  0.639384  1
  P  P29  1  0.405325  0.750000  0.973602  1
  P  P30  1  0.595341  0.250000  0.360213  1
  P  P31  1  0.594430  0.250000  0.027932  1
  P  P32  1  0.597794  0.250000  0.694609  1
  P  P33  1  0.904337  0.750000  0.859109  1
  P  P34  1  0.905301  0.750000  0.194312  1
  P  P35  1  0.902663  0.750000  0.528226  1
  O  O36  1  0.043039  0.750000  0.236350  1
  O  O37  1  0.040629  0.750000  0.569423  1
  O  O38  1  0.041374  0.750000  0.902216  1
  O  O39  1  0.096220  0.250000  0.578538  1
  O  O40  1  0.097077  0.250000  0.913908  1
  O  O41  1  0.097512  0.250000  0.247125  1
  O  O42  1  0.164677  0.047510  0.094980  1
  O  O43  1  0.164677  0.452490  0.094980  1
  O  O44  1  0.161888  0.048774  0.426071  1
  O  O45  1  0.161888  0.451226  0.426071  1
  O  O46  1  0.161405  0.048638  0.760797  1
  O  O47  1  0.161405  0.451362  0.760797  1
  O  O48  1  0.340191  0.548675  0.594379  1
  O  O49  1  0.340191  0.951325  0.594379  1
  O  O50  1  0.335190  0.547252  0.261744  1
  O  O51  1  0.335190  0.952748  0.261744  1
  O  O52  1  0.334586  0.547129  0.929644  1
  O  O53  1  0.334586  0.952871  0.929644  1
  O  O54  1  0.404428  0.750000  0.413009  1
  O  O55  1  0.403688  0.750000  0.081273  1
  O  O56  1  0.405650  0.750000  0.746693  1
  O  O57  1  0.457710  0.250000  0.401786  1
  O  O58  1  0.455806  0.250000  0.067696  1
  O  O59  1  0.459674  0.250000  0.735920  1
  O  O60  1  0.543947  0.750000  0.263978  1
  O  O61  1  0.542161  0.750000  0.931411  1
  O  O62  1  0.549176  0.750000  0.598984  1
  O  O63  1  0.598854  0.250000  0.252885  1
  O  O64  1  0.599304  0.250000  0.920496  1
  O  O65  1  0.600007  0.250000  0.586678  1
  O  O66  1  0.664541  0.049766  0.074088  1
  O  O67  1  0.666743  0.048289  0.405302  1
  O  O68  1  0.667661  0.047388  0.739611  1
  O  O69  1  0.667661  0.452612  0.739611  1
  O  O70  1  0.664541  0.450234  0.074088  1
  O  O71  1  0.666743  0.451711  0.405302  1
  O  O72  1  0.834664  0.545900  0.902589  1
  O  O73  1  0.834664  0.954100  0.902589  1
  O  O74  1  0.834600  0.546055  0.238224  1
  O  O75  1  0.831855  0.547079  0.573237  1
  O  O76  1  0.834600  0.953945  0.238224  1
  O  O77  1  0.831855  0.952921  0.573237  1
  O  O78  1  0.901982  0.750000  0.751585  1
  O  O79  1  0.901529  0.750000  0.420559  1
  O  O80  1  0.904009  0.750000  0.086955  1
  O  O81  1  0.953004  0.250000  0.766383  1
  O  O82  1  0.955552  0.250000  0.099260  1
  O  O83  1  0.952238  0.250000  0.431830  1
