# generated using pymatgen
data_LiCo2CuO6
_symmetry_space_group_name_H-M   'P 1'
_cell_length_a   6.64180277
_cell_length_b   2.81761774
_cell_length_c   5.79730979
_cell_angle_alpha   90.00000849
_cell_angle_beta   104.18536990
_cell_angle_gamma   77.75382472
_symmetry_Int_Tables_number   1
_chemical_formula_structural   LiCo2CuO6
_chemical_formula_sum   'Li1 Co2 Cu1 O6'
_cell_volume   102.63486459
_cell_formula_units_Z   1
loop_
 _symmetry_equiv_pos_site_id
 _symmetry_equiv_pos_as_xyz
  1  'x, y, z'
loop_
 _atom_site_type_symbol
 _atom_site_label
 _atom_site_symmetry_multiplicity
 _atom_site_fract_x
 _atom_site_fract_y
 _atom_site_fract_z
 _atom_site_occupancy
  Li  Li0  1  0.663134  0.668432  0.162114  1
  Co  Co1  1  0.995820  0.002090  0.993116  1
  Co  Co2  1  0.677315  0.661342  0.658629  1
  Cu  Cu3  1  0.325295  0.337353  0.349474  1
  O  O4  1  0.991191  0.504404  0.207636  1
  O  O5  1  0.378378  0.810810  0.572654  1
  O  O6  1  0.696142  0.151929  0.888719  1
  O  O7  1  0.298702  0.850649  0.124499  1
  O  O8  1  0.661613  0.169194  0.435418  1
  O  O9  1  0.979075  0.510462  0.774409  1
