# generated using pymatgen
data_Li3VFe3O8
_symmetry_space_group_name_H-M   'P 1'
_cell_length_a   5.89905944
_cell_length_b   5.90788505
_cell_length_c   9.62183099
_cell_angle_alpha   89.93489727
_cell_angle_beta   89.94543293
_cell_angle_gamma   59.99358018
_symmetry_Int_Tables_number   1
_chemical_formula_structural   Li3VFe3O8
_chemical_formula_sum   'Li6 V2 Fe6 O16'
_cell_volume   290.38537780
_cell_formula_units_Z   2
loop_
 _symmetry_equiv_pos_site_id
 _symmetry_equiv_pos_as_xyz
  1  'x, y, z'
loop_
 _atom_site_type_symbol
 _atom_site_label
 _atom_site_symmetry_multiplicity
 _atom_site_fract_x
 _atom_site_fract_y
 _atom_site_fract_z
 _atom_site_occupancy
  Li  Li0  1  0.825039  0.825126  0.943222  1
  Li  Li1  1  0.350645  0.824058  0.942790  1
  Li  Li2  1  0.823886  0.350973  0.942889  1
  Li  Li3  1  0.175010  0.649656  0.443016  1
  Li  Li4  1  0.649595  0.174919  0.442878  1
  Li  Li5  1  0.175549  0.175026  0.442517  1
  V  V6  1  0.666949  0.665769  0.490612  1
  V  V7  1  0.332417  0.331732  0.990589  1
  Fe  Fe8  1  0.832693  0.831385  0.212536  1
  Fe  Fe9  1  0.337924  0.828323  0.213267  1
  Fe  Fe10  1  0.829137  0.337620  0.213725  1
  Fe  Fe11  1  0.167237  0.663143  0.712780  1
  Fe  Fe12  1  0.662779  0.166837  0.713277  1
  Fe  Fe13  1  0.169313  0.168270  0.713470  1
  O  O14  1  0.001220  0.000761  0.321373  1
  O  O15  1  0.833307  0.833124  0.591172  1
  O  O16  1  0.520987  0.960051  0.348139  1
  O  O17  1  0.961735  0.520145  0.347683  1
  O  O18  1  0.337722  0.830733  0.590956  1
  O  O19  1  0.667400  0.666194  0.096481  1
  O  O20  1  0.518479  0.518697  0.346803  1
  O  O21  1  0.829553  0.338827  0.590565  1
  O  O22  1  0.167577  0.667145  0.090932  1
  O  O23  1  0.478891  0.479854  0.848756  1
  O  O24  1  0.037020  0.482622  0.847341  1
  O  O25  1  0.000380  0.000753  0.821039  1
  O  O26  1  0.333146  0.332993  0.596372  1
  O  O27  1  0.664439  0.168504  0.092007  1
  O  O28  1  0.481327  0.037698  0.846878  1
  O  O29  1  0.171604  0.169053  0.089540  1
