# generated using pymatgen
data_Li2CoNiO4
_symmetry_space_group_name_H-M   'P 1'
_cell_length_a   5.76597214
_cell_length_b   5.76597253
_cell_length_c   5.73501729
_cell_angle_alpha   60.75119722
_cell_angle_beta   60.75118964
_cell_angle_gamma   91.41552210
_symmetry_Int_Tables_number   1
_chemical_formula_structural   Li2CoNiO4
_chemical_formula_sum   'Li4 Co2 Ni2 O8'
_cell_volume   136.18204364
_cell_formula_units_Z   2
loop_
 _symmetry_equiv_pos_site_id
 _symmetry_equiv_pos_as_xyz
  1  'x, y, z'
loop_
 _atom_site_type_symbol
 _atom_site_label
 _atom_site_symmetry_multiplicity
 _atom_site_fract_x
 _atom_site_fract_y
 _atom_site_fract_z
 _atom_site_occupancy
  Li  Li0  1  0.500000  0.500000  0.500000  1
  Li  Li1  1  0.000000  0.500000  0.000000  1
  Li  Li2  1  0.500000  0.000000  0.500000  1
  Li  Li3  1  0.500000  0.500000  0.000000  1
  Co  Co4  1  0.000000  0.000000  0.500000  1
  Co  Co5  1  0.000000  0.000000  0.000000  1
  Ni  Ni6  1  0.000000  0.500000  0.500000  1
  Ni  Ni7  1  0.500000  0.000000  0.000000  1
  O  O8  1  0.771811  0.771481  0.973634  1
  O  O9  1  0.230509  0.762843  0.485129  1
  O  O10  1  0.762843  0.230509  0.985129  1
  O  O11  1  0.771481  0.771811  0.473634  1
  O  O12  1  0.228519  0.228189  0.526366  1
  O  O13  1  0.237157  0.769491  0.014871  1
  O  O14  1  0.769491  0.237157  0.514871  1
  O  O15  1  0.228189  0.228519  0.026366  1
