# generated using pymatgen
data_Li3Cr(BO3)2
_symmetry_space_group_name_H-M   'P 1'
_cell_length_a   6.03959634
_cell_length_b   9.09961039
_cell_length_c   9.43584629
_cell_angle_alpha   115.14716561
_cell_angle_beta   90.00025409
_cell_angle_gamma   89.99999332
_symmetry_Int_Tables_number   1
_chemical_formula_structural   Li3Cr(BO3)2
_chemical_formula_sum   'Li12 Cr4 B8 O24'
_cell_volume   469.42408709
_cell_formula_units_Z   4
loop_
 _symmetry_equiv_pos_site_id
 _symmetry_equiv_pos_as_xyz
  1  'x, y, z'
loop_
 _atom_site_type_symbol
 _atom_site_label
 _atom_site_symmetry_multiplicity
 _atom_site_fract_x
 _atom_site_fract_y
 _atom_site_fract_z
 _atom_site_occupancy
  Li  Li0  1  0.287774  0.134134  0.927303  1
  Li  Li1  1  0.065543  0.286834  0.814954  1
  Li  Li2  1  0.214265  0.129984  0.422935  1
  Li  Li3  1  0.433036  0.291664  0.320965  1
  Li  Li4  1  0.748555  0.379546  0.513600  1
  Li  Li5  1  0.248553  0.620456  0.986408  1
  Li  Li6  1  0.754420  0.380072  0.011589  1
  Li  Li7  1  0.254415  0.619925  0.488402  1
  Li  Li8  1  0.565550  0.713182  0.685062  1
  Li  Li9  1  0.787783  0.865873  0.572713  1
  Li  Li10  1  0.933048  0.708346  0.179043  1
  Li  Li11  1  0.714265  0.870019  0.077057  1
  Cr  Cr12  1  0.966217  0.232604  0.218931  1
  Cr  Cr13  1  0.466185  0.767480  0.281080  1
  Cr  Cr14  1  0.534565  0.231394  0.718481  1
  Cr  Cr15  1  0.034690  0.768654  0.781481  1
  B  B16  1  0.714517  0.050372  0.919638  1
  B  B17  1  0.788353  0.048876  0.420275  1
  B  B18  1  0.339775  0.453356  0.685508  1
  B  B19  1  0.839775  0.546646  0.814494  1
  B  B20  1  0.160742  0.454403  0.185503  1
  B  B21  1  0.660755  0.545589  0.314494  1
  B  B22  1  0.214528  0.949615  0.580355  1
  B  B23  1  0.288360  0.951117  0.079728  1
  O  O24  1  0.607472  0.176475  0.901446  1
  O  O25  1  0.255573  0.098197  0.704991  1
  O  O26  1  0.731164  0.067267  0.568420  1
  O  O27  1  0.894581  0.174679  0.400920  1
  O  O28  1  0.247684  0.100514  0.203677  1
  O  O29  1  0.790918  0.399194  0.812952  1
  O  O30  1  0.772423  0.067788  0.067359  1
  O  O31  1  0.318259  0.422925  0.817090  1
  O  O32  1  0.433374  0.322136  0.556909  1
  O  O33  1  0.710459  0.399220  0.314960  1
  O  O34  1  0.933388  0.677853  0.943083  1
  O  O35  1  0.181554  0.425201  0.317850  1
  O  O36  1  0.066464  0.322819  0.057609  1
  O  O37  1  0.818273  0.577068  0.682909  1
  O  O38  1  0.290950  0.600791  0.687042  1
  O  O39  1  0.566473  0.677165  0.442392  1
  O  O40  1  0.681572  0.574783  0.182159  1
  O  O41  1  0.231176  0.932738  0.931589  1
  O  O42  1  0.210450  0.600758  0.185043  1
  O  O43  1  0.755608  0.901779  0.794994  1
  O  O44  1  0.107496  0.823518  0.598551  1
  O  O45  1  0.272444  0.932200  0.432646  1
  O  O46  1  0.747673  0.899473  0.296323  1
  O  O47  1  0.394585  0.825311  0.099076  1
