# generated using pymatgen
data_Li3TiCr3O8
_symmetry_space_group_name_H-M   'P 1'
_cell_length_a   10.37326355
_cell_length_b   10.37326915
_cell_length_c   14.68851819
_cell_angle_alpha   19.26913937
_cell_angle_beta   19.26914020
_cell_angle_gamma   33.21249673
_symmetry_Int_Tables_number   1
_chemical_formula_structural   Li3TiCr3O8
_chemical_formula_sum   'Li3 Ti1 Cr3 O8'
_cell_volume   149.06836857
_cell_formula_units_Z   1
loop_
 _symmetry_equiv_pos_site_id
 _symmetry_equiv_pos_as_xyz
  1  'x, y, z'
loop_
 _atom_site_type_symbol
 _atom_site_label
 _atom_site_symmetry_multiplicity
 _atom_site_fract_x
 _atom_site_fract_y
 _atom_site_fract_z
 _atom_site_occupancy
  Li  Li0  1  0.000002  0.500002  0.499997  1
  Li  Li1  1  0.499998  0.999997  0.500004  1
  Li  Li2  1  0.500001  0.499999  0.500000  1
  Ti  Ti3  1  0.000008  0.999992  0.000000  1
  Cr  Cr4  1  0.999983  0.500007  0.000003  1
  Cr  Cr5  1  0.499993  0.000016  -0.000002  1
  Cr  Cr6  1  0.500025  0.499975  1.000000  1
  O  O7  1  0.999950  0.999951  0.259518  1
  O  O8  1  0.999957  0.514974  0.250844  1
  O  O9  1  0.514974  0.999956  0.250843  1
  O  O10  1  0.000047  0.000047  0.740485  1
  O  O11  1  0.484944  0.484951  0.280873  1
  O  O12  1  0.000047  0.485028  0.749153  1
  O  O13  1  0.485026  0.000046  0.749154  1
  O  O14  1  0.515048  0.515056  0.719128  1
