# generated using pymatgen
data_Li2Co3WO8
_symmetry_space_group_name_H-M   'P 1'
_cell_length_a   5.91839761
_cell_length_b   5.87133023
_cell_length_c   9.65509320
_cell_angle_alpha   90.24033858
_cell_angle_beta   89.88078398
_cell_angle_gamma   119.73727937
_symmetry_Int_Tables_number   1
_chemical_formula_structural   Li2Co3WO8
_chemical_formula_sum   'Li4 Co6 W2 O16'
_cell_volume   291.31817372
_cell_formula_units_Z   2
loop_
 _symmetry_equiv_pos_site_id
 _symmetry_equiv_pos_as_xyz
  1  'x, y, z'
loop_
 _atom_site_type_symbol
 _atom_site_label
 _atom_site_symmetry_multiplicity
 _atom_site_fract_x
 _atom_site_fract_y
 _atom_site_fract_z
 _atom_site_occupancy
  Li  Li0  1  0.326837  0.666080  0.905613  1
  Li  Li1  1  -0.002090  0.996653  0.990135  1
  Li  Li2  1  0.002090  0.998744  0.490135  1
  Li  Li3  1  0.673163  0.339242  0.405613  1
  Co  Co4  1  0.173747  0.829284  0.219880  1
  Co  Co5  1  0.163955  0.335986  0.214551  1
  Co  Co6  1  0.651607  0.825367  0.213304  1
  Co  Co7  1  0.348393  0.173760  0.713304  1
  Co  Co8  1  0.826253  0.655537  0.719880  1
  Co  Co9  1  0.836045  0.172031  0.714551  1
  W  W10  1  0.344106  0.668817  0.489203  1
  W  W11  1  0.655894  0.324711  0.989203  1
  O  O12  1  0.200374  0.853528  0.589383  1
  O  O13  1  0.043223  0.527475  0.360217  1
  O  O14  1  0.327868  0.675572  0.112395  1
  O  O15  1  0.988050  0.980327  0.298429  1
  O  O16  1  0.011950  -0.007722  0.798429  1
  O  O17  1  0.200187  0.344942  0.587689  1
  O  O18  1  0.498858  0.966325  0.342182  1
  O  O19  1  0.502109  0.540214  0.343537  1
  O  O20  1  0.335064  0.166529  0.087402  1
  O  O21  1  0.664936  0.831464  0.587402  1
  O  O22  1  0.501142  0.467467  0.842182  1
  O  O23  1  0.497891  0.038105  0.843537  1
  O  O24  1  0.672132  0.347703  0.612395  1
  O  O25  1  0.799626  0.653152  0.089383  1
  O  O26  1  0.956777  0.484253  0.860217  1
  O  O27  1  0.799813  0.144755  0.087689  1
