# generated using pymatgen
data_Li3Cr3CoO8
_symmetry_space_group_name_H-M   'P 1'
_cell_length_a   5.91784573
_cell_length_b   5.89302812
_cell_length_c   5.89302812
_cell_angle_alpha   59.99999968
_cell_angle_beta   60.13862627
_cell_angle_gamma   89.99999840
_symmetry_Int_Tables_number   1
_chemical_formula_structural   Li3Cr3CoO8
_chemical_formula_sum   'Li3 Cr3 Co1 O8'
_cell_volume   145.62384524
_cell_formula_units_Z   1
loop_
 _symmetry_equiv_pos_site_id
 _symmetry_equiv_pos_as_xyz
  1  'x, y, z'
loop_
 _atom_site_type_symbol
 _atom_site_label
 _atom_site_symmetry_multiplicity
 _atom_site_fract_x
 _atom_site_fract_y
 _atom_site_fract_z
 _atom_site_occupancy
  Li  Li0  1  0.500000  0.000000  0.000000  1
  Li  Li1  1  0.500000  0.000000  0.500000  1
  Li  Li2  1  0.500000  0.500000  0.500000  1
  Cr  Cr3  1  0.000000  0.000000  0.500000  1
  Cr  Cr4  1  0.000000  0.500000  0.000000  1
  Cr  Cr5  1  0.000000  0.500000  0.500000  1
  Co  Co6  1  0.000000  0.000000  0.000000  1
  O  O7  1  0.213157  0.228550  0.015393  1
  O  O8  1  0.213157  0.228550  0.542899  1
  O  O9  1  0.213157  0.756056  0.015393  1
  O  O10  1  0.225838  0.741946  0.516108  1
  O  O11  1  0.774162  0.258054  0.483892  1
  O  O12  1  0.786843  0.243944  0.984607  1
  O  O13  1  0.786843  0.771450  0.457101  1
  O  O14  1  0.786843  0.771450  0.984607  1
