# generated using pymatgen
data_Li2V2CrO6
_symmetry_space_group_name_H-M   'P 1'
_cell_length_a   7.86487815
_cell_length_b   7.86487805
_cell_length_c   6.06224174
_cell_angle_alpha   101.61439575
_cell_angle_beta   101.61440038
_cell_angle_gamma   69.21926448
_symmetry_Int_Tables_number   1
_chemical_formula_structural   Li2V2CrO6
_chemical_formula_sum   'Li6 V6 Cr3 O18'
_cell_volume   339.94258109
_cell_formula_units_Z   3
loop_
 _symmetry_equiv_pos_site_id
 _symmetry_equiv_pos_as_xyz
  1  'x, y, z'
loop_
 _atom_site_type_symbol
 _atom_site_label
 _atom_site_symmetry_multiplicity
 _atom_site_fract_x
 _atom_site_fract_y
 _atom_site_fract_z
 _atom_site_occupancy
  Li  Li0  1  0.330548  0.666516  0.505353  1
  Li  Li1  1  0.666516  0.330548  0.505353  1
  Li  Li2  1  0.004273  0.662393  0.166667  1
  Li  Li3  1  0.662393  0.004273  0.166667  1
  Li  Li4  1  0.000151  0.336119  0.827980  1
  Li  Li5  1  0.336119  0.000151  0.827980  1
  V  V6  1  0.999310  0.999310  0.995183  1
  V  V7  1  0.667356  0.667356  0.338150  1
  V  V8  1  0.339536  0.662590  0.002326  1
  V  V9  1  0.662590  0.339536  0.002326  1
  V  V10  1  0.004077  0.327130  0.331008  1
  V  V11  1  0.327130  0.004077  0.331008  1
  Cr  Cr12  1  0.999768  0.666899  0.666667  1
  Cr  Cr13  1  0.333333  0.333333  0.666667  1
  Cr  Cr14  1  0.666899  0.999768  0.666667  1
  O  O15  1  0.817741  0.817741  0.424912  1
  O  O16  1  0.493412  0.832952  0.112422  1
  O  O17  1  0.832952  0.493412  0.112422  1
  O  O18  1  0.848925  0.848925  0.908421  1
  O  O19  1  0.500432  0.841498  0.556481  1
  O  O20  1  0.841498  0.500432  0.556481  1
  O  O21  1  0.173255  0.833714  0.220912  1
  O  O22  1  0.515155  0.515155  0.254299  1
  O  O23  1  0.833714  0.173255  0.220912  1
  O  O24  1  0.166234  0.825169  0.776852  1
  O  O25  1  0.491933  0.491933  0.769559  1
  O  O26  1  0.825169  0.166234  0.776852  1
  O  O27  1  0.155655  0.498478  0.440576  1
  O  O28  1  0.498478  0.155655  0.440576  1
  O  O29  1  0.151512  0.151512  0.079034  1
  O  O30  1  0.168188  0.511012  0.892757  1
  O  O31  1  0.511012  0.168188  0.892757  1
  O  O32  1  0.174734  0.174734  0.563774  1
