# generated using pymatgen
data_LiMn(CO3)2
_symmetry_space_group_name_H-M   'P 1'
_cell_length_a   7.32034694
_cell_length_b   9.79309927
_cell_length_c   8.29030349
_cell_angle_alpha   90.00000000
_cell_angle_beta   70.11018169
_cell_angle_gamma   90.00000000
_symmetry_Int_Tables_number   1
_chemical_formula_structural   LiMn(CO3)2
_chemical_formula_sum   'Li4 Mn4 C8 O24'
_cell_volume   558.87043119
_cell_formula_units_Z   4
loop_
 _symmetry_equiv_pos_site_id
 _symmetry_equiv_pos_as_xyz
  1  'x, y, z'
loop_
 _atom_site_type_symbol
 _atom_site_label
 _atom_site_symmetry_multiplicity
 _atom_site_fract_x
 _atom_site_fract_y
 _atom_site_fract_z
 _atom_site_occupancy
  Li  Li0  1  0.008771  0.097741  0.657815  1
  Li  Li1  1  0.508771  0.402259  0.157815  1
  Li  Li2  1  0.491229  0.597741  0.842185  1
  Li  Li3  1  0.991229  0.902259  0.342185  1
  Mn  Mn4  1  0.045428  0.363839  0.432627  1
  Mn  Mn5  1  0.454572  0.863839  0.067373  1
  Mn  Mn6  1  0.545428  0.136161  0.932627  1
  Mn  Mn7  1  0.954572  0.636161  0.567373  1
  C  C8  1  0.250398  0.108115  0.272113  1
  C  C9  1  0.249602  0.608115  0.227887  1
  C  C10  1  0.260821  0.486270  0.640988  1
  C  C11  1  0.239179  0.986270  0.859012  1
  C  C12  1  0.760821  0.013730  0.140988  1
  C  C13  1  0.739179  0.513730  0.359012  1
  C  C14  1  0.750398  0.391885  0.772113  1
  C  C15  1  0.749602  0.891885  0.727887  1
  O  O16  1  0.117454  0.152673  0.406765  1
  O  O17  1  0.225691  0.476393  0.243874  1
  O  O18  1  0.147045  0.693894  0.341733  1
  O  O19  1  0.352955  0.193894  0.158267  1
  O  O20  1  0.274309  0.976393  0.256126  1
  O  O21  1  0.382546  0.652673  0.093235  1
  O  O22  1  0.115733  0.976761  0.786128  1
  O  O23  1  0.230208  0.382105  0.553519  1
  O  O24  1  0.163043  0.601587  0.653799  1
  O  O25  1  0.336957  0.101587  0.846201  1
  O  O26  1  0.269792  0.882105  0.946481  1
  O  O27  1  0.615733  0.523239  0.286128  1
  O  O28  1  0.384267  0.476761  0.713872  1
  O  O29  1  0.730208  0.117894  0.053519  1
  O  O30  1  0.663043  0.898413  0.153799  1
  O  O31  1  0.836957  0.398413  0.346201  1
  O  O32  1  0.769792  0.617895  0.446481  1
  O  O33  1  0.884267  0.023239  0.213872  1
  O  O34  1  0.617454  0.347327  0.906765  1
  O  O35  1  0.725691  0.023607  0.743874  1
  O  O36  1  0.647045  0.806106  0.841733  1
  O  O37  1  0.852955  0.306106  0.658267  1
  O  O38  1  0.774309  0.523607  0.756126  1
  O  O39  1  0.882546  0.847327  0.593235  1
