# generated using pymatgen
data_Na5Mn2P2(CO7)2
_symmetry_space_group_name_H-M   'P 1'
_cell_length_a   9.07438862
_cell_length_b   6.63488417
_cell_length_c   10.52729804
_cell_angle_alpha   89.75323663
_cell_angle_beta   89.09455313
_cell_angle_gamma   90.30310806
_symmetry_Int_Tables_number   1
_chemical_formula_structural   Na5Mn2P2(CO7)2
_chemical_formula_sum   'Na10 Mn4 P4 C4 O28'
_cell_volume   633.72836063
_cell_formula_units_Z   2
loop_
 _symmetry_equiv_pos_site_id
 _symmetry_equiv_pos_as_xyz
  1  'x, y, z'
loop_
 _atom_site_type_symbol
 _atom_site_label
 _atom_site_symmetry_multiplicity
 _atom_site_fract_x
 _atom_site_fract_y
 _atom_site_fract_z
 _atom_site_occupancy
  Na  Na0  1  0.070695  0.259290  0.380765  1
  Na  Na1  1  0.255670  0.005879  0.631288  1
  Na  Na2  1  0.255365  0.493288  0.633232  1
  Na  Na3  1  0.252748  0.007711  0.115702  1
  Na  Na4  1  0.253541  0.492015  0.114392  1
  Na  Na5  1  0.751256  0.498011  0.873922  1
  Na  Na6  1  0.751956  0.004921  0.876647  1
  Na  Na7  1  0.737292  0.987797  0.376488  1
  Na  Na8  1  0.916319  0.740552  0.611102  1
  Na  Na9  1  0.916782  0.740684  0.124697  1
  Mn  Mn10  1  0.356538  0.751604  0.888764  1
  Mn  Mn11  1  0.356651  0.748138  0.389686  1
  Mn  Mn12  1  0.647867  0.256470  0.604147  1
  Mn  Mn13  1  0.648289  0.254622  0.116795  1
  P  P14  1  0.425168  0.251096  0.851092  1
  P  P15  1  0.418092  0.247973  0.351424  1
  P  P16  1  0.582029  0.751837  0.652172  1
  P  P17  1  0.578665  0.751904  0.148371  1
  C  C18  1  0.063390  0.750205  0.865034  1
  C  C19  1  0.065758  0.753206  0.364465  1
  C  C20  1  0.933765  0.246719  0.634435  1
  C  C21  1  0.933926  0.246193  0.139007  1
  O  O22  1  0.074690  0.248355  0.627309  1
  O  O23  1  0.075184  0.250248  0.142536  1
  O  O24  1  0.130443  0.749404  0.974267  1
  O  O25  1  0.133940  0.746528  0.473799  1
  O  O26  1  0.144163  0.749638  0.761662  1
  O  O27  1  0.146259  0.745369  0.260530  1
  O  O28  1  0.331283  0.063023  0.886905  1
  O  O29  1  0.333129  0.439386  0.886487  1
  O  O30  1  0.318367  0.063847  0.384916  1
  O  O31  1  0.323630  0.433319  0.388014  1
  O  O32  1  0.451319  0.251232  0.701428  1
  O  O33  1  0.430727  0.748246  0.586508  1
  O  O34  1  0.445790  0.250764  0.203042  1
  O  O35  1  0.427495  0.751359  0.082424  1
  O  O36  1  0.575440  0.250835  0.917687  1
  O  O37  1  0.558115  0.759000  0.799504  1
  O  O38  1  0.566460  0.240697  0.418575  1
  O  O39  1  0.552711  0.757439  0.293519  1
  O  O40  1  0.678483  0.564469  0.622357  1
  O  O41  1  0.677569  0.937846  0.611159  1
  O  O42  1  0.673795  0.567222  0.108017  1
  O  O43  1  0.675985  0.937653  0.108888  1
  O  O44  1  0.855818  0.250758  0.737524  1
  O  O45  1  0.854014  0.233653  0.241652  1
  O  O46  1  0.859368  0.243081  0.526833  1
  O  O47  1  0.862932  0.257140  0.031228  1
  O  O48  1  0.922030  0.751393  0.861011  1
  O  O49  1  0.925821  0.765881  0.362170  1
