# generated using pymatgen
data_LiTi(SiO3)2
_symmetry_space_group_name_H-M   'P 1'
_cell_length_a   18.60902400
_cell_length_b   8.73561736
_cell_length_c   5.22787371
_cell_angle_alpha   90.00000000
_cell_angle_beta   90.00000000
_cell_angle_gamma   90.00000000
_symmetry_Int_Tables_number   1
_chemical_formula_structural   LiTi(SiO3)2
_chemical_formula_sum   'Li8 Ti8 Si16 O48'
_cell_volume   849.85001506
_cell_formula_units_Z   8
loop_
 _symmetry_equiv_pos_site_id
 _symmetry_equiv_pos_as_xyz
  1  'x, y, z'
loop_
 _atom_site_type_symbol
 _atom_site_label
 _atom_site_symmetry_multiplicity
 _atom_site_fract_x
 _atom_site_fract_y
 _atom_site_fract_z
 _atom_site_occupancy
  Li  Li0  1  0.122325  0.983412  0.366406  1
  Li  Li1  1  0.122325  0.516588  0.866406  1
  Li  Li2  1  0.377675  0.016588  0.866406  1
  Li  Li3  1  0.377675  0.483412  0.366406  1
  Li  Li4  1  0.622325  0.516588  0.633594  1
  Li  Li5  1  0.622325  0.983412  0.133594  1
  Li  Li6  1  0.877675  0.016588  0.633594  1
  Li  Li7  1  0.877675  0.483412  0.133594  1
  Ti  Ti8  1  0.124572  0.339909  0.372188  1
  Ti  Ti9  1  0.124572  0.160091  0.872188  1
  Ti  Ti10  1  0.375428  0.660091  0.872188  1
  Ti  Ti11  1  0.375428  0.839909  0.372188  1
  Ti  Ti12  1  0.624572  0.160091  0.627812  1
  Ti  Ti13  1  0.624572  0.339909  0.127812  1
  Ti  Ti14  1  0.875428  0.660091  0.627812  1
  Ti  Ti15  1  0.875428  0.839909  0.127812  1
  Si  Si16  1  0.028243  0.661452  0.292281  1
  Si  Si17  1  0.028243  0.838548  0.792281  1
  Si  Si18  1  0.225131  0.656850  0.548567  1
  Si  Si19  1  0.225131  0.843150  0.048567  1
  Si  Si20  1  0.274869  0.156850  0.548567  1
  Si  Si21  1  0.274869  0.343150  0.048567  1
  Si  Si22  1  0.471757  0.161452  0.292281  1
  Si  Si23  1  0.471757  0.338548  0.792281  1
  Si  Si24  1  0.528243  0.661452  0.207719  1
  Si  Si25  1  0.528243  0.838548  0.707719  1
  Si  Si26  1  0.725131  0.656850  0.951433  1
  Si  Si27  1  0.725131  0.843150  0.451433  1
  Si  Si28  1  0.774869  0.156850  0.951433  1
  Si  Si29  1  0.774869  0.343150  0.451433  1
  Si  Si30  1  0.971757  0.161452  0.207719  1
  Si  Si31  1  0.971757  0.338548  0.707719  1
  O  O32  1  0.053548  0.702258  0.589574  1
  O  O33  1  0.053548  0.797742  0.089574  1
  O  O34  1  0.060922  0.162946  0.208195  1
  O  O35  1  0.060922  0.337054  0.708195  1
  O  O36  1  0.066944  0.504741  0.203227  1
  O  O37  1  0.066944  0.995259  0.703227  1
  O  O38  1  0.186104  0.159827  0.538537  1
  O  O39  1  0.186104  0.340173  0.038537  1
  O  O40  1  0.188852  0.010691  0.039770  1
  O  O41  1  0.188852  0.489309  0.539770  1
  O  O42  1  0.195740  0.771024  0.321598  1
  O  O43  1  0.195740  0.728976  0.821598  1
  O  O44  1  0.304260  0.228976  0.821598  1
  O  O45  1  0.304260  0.271024  0.321598  1
  O  O46  1  0.311148  0.510691  0.039770  1
  O  O47  1  0.311148  0.989309  0.539770  1
  O  O48  1  0.313896  0.659827  0.538537  1
  O  O49  1  0.313896  0.840173  0.038537  1
  O  O50  1  0.433056  0.004741  0.203227  1
  O  O51  1  0.433056  0.495259  0.703227  1
  O  O52  1  0.439078  0.662946  0.208195  1
  O  O53  1  0.439078  0.837054  0.708195  1
  O  O54  1  0.446452  0.202258  0.589574  1
  O  O55  1  0.446452  0.297742  0.089574  1
  O  O56  1  0.553548  0.702258  0.910426  1
  O  O57  1  0.553548  0.797742  0.410426  1
  O  O58  1  0.560922  0.162946  0.291805  1
  O  O59  1  0.560922  0.337054  0.791805  1
  O  O60  1  0.566944  0.504741  0.296773  1
  O  O61  1  0.566944  0.995259  0.796773  1
  O  O62  1  0.686104  0.159827  0.961463  1
  O  O63  1  0.686104  0.340173  0.461463  1
  O  O64  1  0.688852  0.010691  0.460230  1
  O  O65  1  0.688852  0.489309  0.960230  1
  O  O66  1  0.695740  0.728976  0.678402  1
  O  O67  1  0.695740  0.771024  0.178402  1
  O  O68  1  0.804260  0.228976  0.678402  1
  O  O69  1  0.804260  0.271024  0.178402  1
  O  O70  1  0.811148  0.510691  0.460230  1
  O  O71  1  0.811148  0.989309  0.960230  1
  O  O72  1  0.813896  0.659827  0.961463  1
  O  O73  1  0.813896  0.840173  0.461463  1
  O  O74  1  0.933056  0.004741  0.296773  1
  O  O75  1  0.933056  0.495259  0.796773  1
  O  O76  1  0.939078  0.662946  0.291805  1
  O  O77  1  0.939078  0.837054  0.791805  1
  O  O78  1  0.946452  0.202258  0.910426  1
  O  O79  1  0.946452  0.297742  0.410426  1
