# generated using pymatgen
data_MnF3
_symmetry_space_group_name_H-M   'P 1'
_cell_length_a   8.77617693
_cell_length_b   5.01077063
_cell_length_c   4.98872069
_cell_angle_alpha   90.00000000
_cell_angle_beta   90.18751824
_cell_angle_gamma   90.00000000
_symmetry_Int_Tables_number   1
_chemical_formula_structural   MnF3
_chemical_formula_sum   'Mn4 F12'
_cell_volume   219.37986058
_cell_formula_units_Z   4
loop_
 _symmetry_equiv_pos_site_id
 _symmetry_equiv_pos_as_xyz
  1  'x, y, z'
loop_
 _atom_site_type_symbol
 _atom_site_label
 _atom_site_symmetry_multiplicity
 _atom_site_fract_x
 _atom_site_fract_y
 _atom_site_fract_z
 _atom_site_occupancy
  Mn  Mn0  1  0.173654  0.499626  0.499998  1
  Mn  Mn1  1  0.326346  0.999626  0.000002  1
  Mn  Mn2  1  0.673654  0.000374  -0.000002  1
  Mn  Mn3  1  0.826346  0.500374  0.500002  1
  F  F4  1  0.000674  0.670878  0.675165  1
  F  F5  1  0.186223  0.197252  0.798223  1
  F  F6  1  0.187215  0.801538  0.201523  1
  F  F7  1  0.312785  0.301538  0.298477  1
  F  F8  1  0.313777  0.697252  0.701777  1
  F  F9  1  0.499326  0.170878  0.824835  1
  F  F10  1  0.500674  0.829122  0.175165  1
  F  F11  1  0.686223  0.302748  0.298223  1
  F  F12  1  0.687215  0.698462  0.701523  1
  F  F13  1  0.812785  0.198462  0.798477  1
  F  F14  1  0.813777  0.802748  0.201777  1
  F  F15  1  0.999326  0.329122  0.324835  1
