# generated using pymatgen
data_Li6Cr3Co(PO4)6
_symmetry_space_group_name_H-M   'P 1'
_cell_length_a   8.48080850
_cell_length_b   8.51519018
_cell_length_c   8.51326309
_cell_angle_alpha   61.42202575
_cell_angle_beta   61.44284680
_cell_angle_gamma   61.45099985
_symmetry_Int_Tables_number   1
_chemical_formula_structural   Li6Cr3Co(PO4)6
_chemical_formula_sum   'Li6 Cr3 Co1 P6 O24'
_cell_volume   448.76771033
_cell_formula_units_Z   1
loop_
 _symmetry_equiv_pos_site_id
 _symmetry_equiv_pos_as_xyz
  1  'x, y, z'
loop_
 _atom_site_type_symbol
 _atom_site_label
 _atom_site_symmetry_multiplicity
 _atom_site_fract_x
 _atom_site_fract_y
 _atom_site_fract_z
 _atom_site_occupancy
  Li  Li0  1  0.023207  0.001883  0.992372  1
  Li  Li1  1  0.750187  0.150651  0.349242  1
  Li  Li2  1  0.475724  0.505446  0.497377  1
  Li  Li3  1  0.235808  0.849995  0.655374  1
  Li  Li4  1  0.656719  0.234489  0.847281  1
  Li  Li5  1  0.848021  0.658158  0.232533  1
  Cr  Cr6  1  0.140081  0.143478  0.138016  1
  Cr  Cr7  1  0.359668  0.362249  0.356235  1
  Cr  Cr8  1  0.642398  0.644733  0.643913  1
  Co  Co9  1  0.857939  0.856385  0.855730  1
  P  P10  1  0.044900  0.750492  0.458235  1
  P  P11  1  0.457833  0.044902  0.750262  1
  P  P12  1  0.750362  0.461985  0.041530  1
  P  P13  1  0.247474  0.540577  0.959813  1
  P  P14  1  0.542682  0.963711  0.247414  1
  P  P15  1  0.958091  0.247040  0.537307  1
  O  O16  1  0.129679  0.288352  0.499985  1
  O  O17  1  0.298644  0.513812  0.120644  1
  O  O18  1  0.043546  0.922688  0.272520  1
  O  O19  1  0.532666  0.121930  0.294229  1
  O  O20  1  0.237099  0.591332  0.435347  1
  O  O21  1  0.020885  0.801734  0.622497  1
  O  O22  1  0.265201  0.065680  0.909079  1
  O  O23  1  0.457674  0.230173  0.577428  1
  O  O24  1  0.592740  0.437033  0.238312  1
  O  O25  1  0.201745  0.376719  0.986828  1
  O  O26  1  0.079327  0.735799  0.943071  1
  O  O27  1  0.367907  0.001233  0.212093  1
  O  O28  1  0.622695  0.016673  0.804132  1
  O  O29  1  0.907678  0.264907  0.063833  1
  O  O30  1  0.804330  0.623473  0.016945  1
  O  O31  1  0.406682  0.569846  0.762471  1
  O  O32  1  0.569342  0.767067  0.406467  1
  O  O33  1  0.734040  0.943655  0.076695  1
  O  O34  1  0.967856  0.206045  0.375938  1
  O  O35  1  0.764540  0.408423  0.570876  1
  O  O36  1  0.484299  0.883348  0.696274  1
  O  O37  1  0.944060  0.078704  0.731360  1
  O  O38  1  0.693799  0.489643  0.882478  1
  O  O39  1  0.882470  0.694559  0.488869  1
