# generated using pymatgen
data_V3Cr3(SbO8)2
_symmetry_space_group_name_H-M   'P 1'
_cell_length_a   5.96488005
_cell_length_b   5.95317875
_cell_length_c   9.34060368
_cell_angle_alpha   90.66215263
_cell_angle_beta   89.63416079
_cell_angle_gamma   120.23232041
_symmetry_Int_Tables_number   1
_chemical_formula_structural   V3Cr3(SbO8)2
_chemical_formula_sum   'V3 Cr3 Sb2 O16'
_cell_volume   286.55346312
_cell_formula_units_Z   1
loop_
 _symmetry_equiv_pos_site_id
 _symmetry_equiv_pos_as_xyz
  1  'x, y, z'
loop_
 _atom_site_type_symbol
 _atom_site_label
 _atom_site_symmetry_multiplicity
 _atom_site_fract_x
 _atom_site_fract_y
 _atom_site_fract_z
 _atom_site_occupancy
  V  V0  1  0.664006  0.833309  0.215757  1
  V  V1  1  0.836183  0.661139  0.721469  1
  V  V2  1  0.827594  0.161824  0.705299  1
  Cr  Cr3  1  0.171970  0.831422  0.209439  1
  Cr  Cr4  1  0.172684  0.339963  0.208730  1
  Cr  Cr5  1  0.341612  0.172856  0.709381  1
  Sb  Sb6  1  0.321942  0.662999  0.489023  1
  Sb  Sb7  1  0.655736  0.324004  0.990349  1
  O  O8  1  0.164662  0.832123  0.598919  1
  O  O9  1  0.045099  0.522766  0.337043  1
  O  O10  1  0.361420  0.679099  0.105091  1
  O  O11  1  0.984302  0.993271  0.302759  1
  O  O12  1  0.993045  0.992314  0.803621  1
  O  O13  1  0.163102  0.338054  0.602500  1
  O  O14  1  0.491954  0.959359  0.339131  1
  O  O15  1  0.490590  0.533393  0.339660  1
  O  O16  1  0.328029  0.161640  0.096263  1
  O  O17  1  0.655203  0.834618  0.605163  1
  O  O18  1  0.528784  0.485430  0.840979  1
  O  O19  1  0.524994  0.044015  0.835275  1
  O  O20  1  0.682446  0.347681  0.607397  1
  O  O21  1  0.818942  0.657380  0.106213  1
  O  O22  1  0.956654  0.472882  0.840841  1
  O  O23  1  0.819045  0.158659  0.105420  1
