# generated using pymatgen
data_Mn3FeO8
_symmetry_space_group_name_H-M   'P 1'
_cell_length_a   8.31320664
_cell_length_b   8.29856580
_cell_length_c   8.31228952
_cell_angle_alpha   89.94227807
_cell_angle_beta   89.99465466
_cell_angle_gamma   89.89747089
_symmetry_Int_Tables_number   1
_chemical_formula_structural   Mn3FeO8
_chemical_formula_sum   'Mn12 Fe4 O32'
_cell_volume   573.44446024
_cell_formula_units_Z   4
loop_
 _symmetry_equiv_pos_site_id
 _symmetry_equiv_pos_as_xyz
  1  'x, y, z'
loop_
 _atom_site_type_symbol
 _atom_site_label
 _atom_site_symmetry_multiplicity
 _atom_site_fract_x
 _atom_site_fract_y
 _atom_site_fract_z
 _atom_site_occupancy
  Mn  Mn0  1  0.121798  0.125392  0.625632  1
  Mn  Mn1  1  0.126039  0.376335  0.871495  1
  Mn  Mn2  1  0.126003  0.626908  0.121949  1
  Mn  Mn3  1  0.372636  0.376687  0.624858  1
  Mn  Mn4  1  0.375410  0.623204  0.373562  1
  Mn  Mn5  1  0.376482  0.871614  0.123126  1
  Mn  Mn6  1  0.623885  0.374271  0.375958  1
  Mn  Mn7  1  0.626474  0.122464  0.126446  1
  Mn  Mn8  1  0.625156  0.874284  0.877957  1
  Mn  Mn9  1  0.872261  0.124886  0.376259  1
  Mn  Mn10  1  0.875771  0.875919  0.627634  1
  Mn  Mn11  1  0.877050  0.626732  0.875183  1
  Fe  Fe12  1  0.124658  0.875117  0.374666  1
  Fe  Fe13  1  0.374703  0.124437  0.875222  1
  Fe  Fe14  1  0.626296  0.625025  0.626384  1
  Fe  Fe15  1  0.875093  0.376107  0.123724  1
  O  O16  1  0.108777  0.106157  0.391752  1
  O  O17  1  0.106941  0.893546  0.618905  1
  O  O18  1  0.111100  0.610221  0.890482  1
  O  O19  1  0.137103  0.143615  0.857378  1
  O  O20  1  0.105150  0.390544  0.108074  1
  O  O21  1  0.139864  0.360245  0.638926  1
  O  O22  1  0.140385  0.644649  0.357362  1
  O  O23  1  0.144591  0.858056  0.131063  1
  O  O24  1  0.358760  0.141090  0.644043  1
  O  O25  1  0.356358  0.368469  0.855808  1
  O  O26  1  0.359972  0.638682  0.140911  1
  O  O27  1  0.384756  0.608691  0.605040  1
  O  O28  1  0.362084  0.858479  0.357003  1
  O  O29  1  0.390069  0.389149  0.390171  1
  O  O30  1  0.390875  0.108653  0.106233  1
  O  O31  1  0.394551  0.881402  0.893787  1
  O  O32  1  0.608116  0.394661  0.608927  1
  O  O33  1  0.607338  0.607369  0.383727  1
  O  O34  1  0.610848  0.890145  0.110637  1
  O  O35  1  0.644263  0.358497  0.141703  1
  O  O36  1  0.612528  0.107424  0.893017  1
  O  O37  1  0.638742  0.139643  0.360161  1
  O  O38  1  0.640148  0.854601  0.642094  1
  O  O39  1  0.644296  0.641103  0.866227  1
  O  O40  1  0.857320  0.356962  0.366246  1
  O  O41  1  0.857630  0.134602  0.144483  1
  O  O42  1  0.859305  0.861196  0.858911  1
  O  O43  1  0.888202  0.890553  0.394337  1
  O  O44  1  0.865726  0.642545  0.642905  1
  O  O45  1  0.889787  0.110678  0.609607  1
  O  O46  1  0.891781  0.393549  0.883616  1
  O  O47  1  0.892921  0.615579  0.106554  1
