# generated using pymatgen
data_LiCoNiO4
_symmetry_space_group_name_H-M   'P 1'
_cell_length_a   5.69608433
_cell_length_b   5.69227547
_cell_length_c   5.69227492
_cell_angle_alpha   60.23141543
_cell_angle_beta   59.97785973
_cell_angle_gamma   59.97786293
_symmetry_Int_Tables_number   1
_chemical_formula_structural   LiCoNiO4
_chemical_formula_sum   'Li2 Co2 Ni2 O8'
_cell_volume   130.68961110
_cell_formula_units_Z   2
loop_
 _symmetry_equiv_pos_site_id
 _symmetry_equiv_pos_as_xyz
  1  'x, y, z'
loop_
 _atom_site_type_symbol
 _atom_site_label
 _atom_site_symmetry_multiplicity
 _atom_site_fract_x
 _atom_site_fract_y
 _atom_site_fract_z
 _atom_site_occupancy
  Li  Li0  1  0.120815  0.129185  0.129185  1
  Li  Li1  1  0.879185  0.870815  0.870815  1
  Co  Co2  1  0.500000  0.000000  0.500000  1
  Co  Co3  1  0.500000  0.500000  0.000000  1
  Ni  Ni4  1  0.000000  0.500000  0.500000  1
  Ni  Ni5  1  0.500000  0.500000  0.500000  1
  O  O6  1  0.261066  0.265515  0.265515  1
  O  O7  1  0.262230  0.267501  0.708038  1
  O  O8  1  0.262230  0.708038  0.267501  1
  O  O9  1  0.707904  0.265515  0.265515  1
  O  O10  1  0.292096  0.734485  0.734485  1
  O  O11  1  0.737770  0.732499  0.291962  1
  O  O12  1  0.737770  0.291962  0.732499  1
  O  O13  1  0.738934  0.734485  0.734485  1
