# generated using pymatgen
data_Li3MnSi2O7
_symmetry_space_group_name_H-M   'P 1'
_cell_length_a   4.66534433
_cell_length_b   5.35343697
_cell_length_c   6.75930114
_cell_angle_alpha   99.34430083
_cell_angle_beta   89.14818663
_cell_angle_gamma   64.37012615
_symmetry_Int_Tables_number   1
_chemical_formula_structural   Li3MnSi2O7
_chemical_formula_sum   'Li3 Mn1 Si2 O7'
_cell_volume   149.49891177
_cell_formula_units_Z   1
loop_
 _symmetry_equiv_pos_site_id
 _symmetry_equiv_pos_as_xyz
  1  'x, y, z'
loop_
 _atom_site_type_symbol
 _atom_site_label
 _atom_site_symmetry_multiplicity
 _atom_site_fract_x
 _atom_site_fract_y
 _atom_site_fract_z
 _atom_site_occupancy
  Li  Li0  1  0.713883  0.577428  0.849081  1
  Li  Li1  1  0.837437  0.295515  0.448308  1
  Li  Li2  1  0.284351  0.430321  0.167840  1
  Mn  Mn3  1  0.000615  0.992914  0.988223  1
  Si  Si4  1  0.584593  0.844856  0.287547  1
  Si  Si5  1  0.438362  0.158220  0.710672  1
  O  O6  1  0.750106  0.912186  0.791850  1
  O  O7  1  0.882835  0.559361  0.310361  1
  O  O8  1  0.371773  0.768667  0.113284  1
  O  O9  1  0.688013  0.080427  0.215032  1
  O  O10  1  0.513826  0.412273  0.675776  1
  O  O11  1  0.340159  0.017872  0.497337  1
  O  O12  1  0.134973  0.250066  0.882749  1
