# generated using pymatgen
data_Li4Ti3Mn2Co3O16
_symmetry_space_group_name_H-M   'P 1'
_cell_length_a   5.77079855
_cell_length_b   5.81456582
_cell_length_c   9.50576530
_cell_angle_alpha   90.01999872
_cell_angle_beta   90.67395840
_cell_angle_gamma   120.25100326
_symmetry_Int_Tables_number   1
_chemical_formula_structural   Li4Ti3Mn2Co3O16
_chemical_formula_sum   'Li4 Ti3 Mn2 Co3 O16'
_cell_volume   275.50240984
_cell_formula_units_Z   1
loop_
 _symmetry_equiv_pos_site_id
 _symmetry_equiv_pos_as_xyz
  1  'x, y, z'
loop_
 _atom_site_type_symbol
 _atom_site_label
 _atom_site_symmetry_multiplicity
 _atom_site_fract_x
 _atom_site_fract_y
 _atom_site_fract_z
 _atom_site_occupancy
  Li  Li0  1  0.345690  0.673000  0.887836  1
  Li  Li1  1  0.963941  0.981809  0.990122  1
  Li  Li2  1  0.982371  0.991093  0.499902  1
  Li  Li3  1  0.674610  0.337334  0.402059  1
  Ti  Ti4  1  0.165046  0.832469  0.214096  1
  Ti  Ti5  1  0.164817  0.332445  0.214079  1
  Ti  Ti6  1  0.350927  0.175788  0.715346  1
  Mn  Mn7  1  0.335968  0.668008  0.490959  1
  Mn  Mn8  1  0.680056  0.340022  0.982247  1
  Co  Co9  1  0.648254  0.824010  0.217299  1
  Co  Co10  1  0.836136  0.659974  0.709812  1
  Co  Co11  1  0.836117  0.176260  0.709821  1
  O  O12  1  0.169695  0.836578  0.596818  1
  O  O13  1  0.040787  0.520399  0.344144  1
  O  O14  1  0.319765  0.659791  0.102772  1
  O  O15  1  0.985150  0.992518  0.313871  1
  O  O16  1  0.002573  0.001380  0.803635  1
  O  O17  1  0.169654  0.333168  0.596780  1
  O  O18  1  0.481959  0.959458  0.345060  1
  O  O19  1  0.481901  0.522418  0.345061  1
  O  O20  1  0.316473  0.158155  0.107784  1
  O  O21  1  0.666496  0.833270  0.600952  1
  O  O22  1  0.535201  0.489444  0.840186  1
  O  O23  1  0.535243  0.046120  0.840265  1
  O  O24  1  0.671971  0.335971  0.603060  1
  O  O25  1  0.827806  0.667711  0.106060  1
  O  O26  1  0.983624  0.491948  0.821718  1
  O  O27  1  0.827769  0.159759  0.106097  1
