# generated using pymatgen
data_LiV4OF11
_symmetry_space_group_name_H-M   'P 1'
_cell_length_a   5.28186994
_cell_length_b   5.50188472
_cell_length_c   17.41704137
_cell_angle_alpha   92.14975473
_cell_angle_beta   98.46584752
_cell_angle_gamma   61.27884062
_symmetry_Int_Tables_number   1
_chemical_formula_structural   LiV4OF11
_chemical_formula_sum   'Li2 V8 O2 F22'
_cell_volume   438.71304936
_cell_formula_units_Z   2
loop_
 _symmetry_equiv_pos_site_id
 _symmetry_equiv_pos_as_xyz
  1  'x, y, z'
loop_
 _atom_site_type_symbol
 _atom_site_label
 _atom_site_symmetry_multiplicity
 _atom_site_fract_x
 _atom_site_fract_y
 _atom_site_fract_z
 _atom_site_occupancy
  Li  Li0  1  0.663484  0.086483  0.444685  1
  Li  Li1  1  0.836615  0.163446  0.805387  1
  V  V2  1  0.254037  0.354218  0.873454  1
  V  V3  1  0.007236  0.994139  0.000336  1
  V  V4  1  0.019109  0.474905  0.496584  1
  V  V5  1  0.480951  0.775174  0.753516  1
  V  V6  1  0.750247  0.125024  0.625147  1
  V  V7  1  0.492379  0.255926  0.249541  1
  V  V8  1  0.245709  0.895558  0.376528  1
  V  V9  1  0.749722  0.625096  0.124910  1
  O  O10  1  0.254418  0.065599  0.813324  1
  O  O11  1  0.246050  0.184491  0.436711  1
  F  F12  1  0.183549  0.207818  0.966892  1
  F  F13  1  0.229731  0.682293  0.937246  1
  F  F14  1  0.324846  0.331716  0.591620  1
  F  F15  1  0.326303  0.525637  0.787492  1
  F  F16  1  0.316747  0.042208  0.283123  1
  F  F17  1  0.173714  0.724268  0.462517  1
  F  F18  1  0.174810  0.918456  0.658282  1
  F  F19  1  0.169501  0.418716  0.159383  1
  F  F20  1  0.701639  0.149837  0.904529  1
  F  F21  1  0.270602  0.567761  0.312825  1
  F  F22  1  0.726651  0.431233  0.691122  1
  F  F23  1  0.798759  0.099939  0.345479  1
  F  F24  1  0.811748  0.564380  0.837592  1
  F  F25  1  0.798545  0.279178  0.527973  1
  F  F26  1  0.330065  0.831640  0.090680  1
  F  F27  1  0.678120  0.461361  0.214154  1
  F  F28  1  0.701413  0.970896  0.721994  1
  F  F29  1  0.688289  0.685522  0.412448  1
  F  F30  1  0.774485  0.307737  0.060729  1
  F  F31  1  0.773435  0.818708  0.558783  1
  F  F32  1  0.725082  0.942356  0.189184  1
  F  F33  1  0.822001  0.788253  0.035829  1
