# generated using pymatgen
data_LiV(OF)2
_symmetry_space_group_name_H-M   'P 1'
_cell_length_a   6.25230066
_cell_length_b   3.52309001
_cell_length_c   6.78319013
_cell_angle_alpha   90.00000000
_cell_angle_beta   109.77837763
_cell_angle_gamma   90.00000000
_symmetry_Int_Tables_number   1
_chemical_formula_structural   LiV(OF)2
_chemical_formula_sum   'Li2 V2 O4 F4'
_cell_volume   140.60188599
_cell_formula_units_Z   2
loop_
 _symmetry_equiv_pos_site_id
 _symmetry_equiv_pos_as_xyz
  1  'x, y, z'
loop_
 _atom_site_type_symbol
 _atom_site_label
 _atom_site_symmetry_multiplicity
 _atom_site_fract_x
 _atom_site_fract_y
 _atom_site_fract_z
 _atom_site_occupancy
  Li  Li0  1  0.349795  0.245140  0.798096  1
  Li  Li1  1  0.650205  0.745140  0.201904  1
  V  V2  1  0.143412  0.244723  0.228322  1
  V  V3  1  0.856588  0.744723  0.771678  1
  O  O4  1  0.095311  0.738992  0.148014  1
  O  O5  1  0.293403  0.244619  0.475916  1
  O  O6  1  0.706597  0.744619  0.524084  1
  O  O7  1  0.904689  0.238992  0.851986  1
  F  F8  1  0.152089  0.735142  0.751246  1
  F  F9  1  0.610980  0.732380  0.886155  1
  F  F10  1  0.389020  0.232380  0.113845  1
  F  F11  1  0.847911  0.235142  0.248754  1
