# generated using pymatgen
data_Li3MnV4O12
_symmetry_space_group_name_H-M   'P 1'
_cell_length_a   6.96086000
_cell_length_b   6.96085974
_cell_length_c   5.84011961
_cell_angle_alpha   74.16035115
_cell_angle_beta   105.83965261
_cell_angle_gamma   96.86658741
_symmetry_Int_Tables_number   1
_chemical_formula_structural   Li3MnV4O12
_chemical_formula_sum   'Li3 Mn1 V4 O12'
_cell_volume   261.58259750
_cell_formula_units_Z   1
loop_
 _symmetry_equiv_pos_site_id
 _symmetry_equiv_pos_as_xyz
  1  'x, y, z'
loop_
 _atom_site_type_symbol
 _atom_site_label
 _atom_site_symmetry_multiplicity
 _atom_site_fract_x
 _atom_site_fract_y
 _atom_site_fract_z
 _atom_site_occupancy
  Li  Li0  1  0.099763  0.099763  0.750000  1
  Li  Li1  1  0.245072  0.245072  0.250000  1
  Li  Li2  1  0.762384  0.762384  0.750000  1
  Mn  Mn3  1  0.914589  0.914589  0.250000  1
  V  V4  1  0.201356  0.607079  0.771476  1
  V  V5  1  0.390095  0.802745  0.271902  1
  V  V6  1  0.607079  0.201356  0.728524  1
  V  V7  1  0.802745  0.390095  0.228098  1
  O  O8  1  0.015871  0.777647  0.646149  1
  O  O9  1  0.103067  0.371028  0.830862  1
  O  O10  1  0.209272  0.979889  0.163213  1
  O  O11  1  0.356967  0.637678  0.562903  1
  O  O12  1  0.371028  0.103067  0.669138  1
  O  O13  1  0.353128  0.642818  0.059092  1
  O  O14  1  0.637678  0.356967  0.937097  1
  O  O15  1  0.632647  0.896905  0.337855  1
  O  O16  1  0.642818  0.353128  0.440908  1
  O  O17  1  0.777647  0.015871  0.853851  1
  O  O18  1  0.896905  0.632647  0.162145  1
  O  O19  1  0.979889  0.209272  0.336787  1
