# generated using pymatgen
data_Na2Li4Ti3Al(PO4)6
_symmetry_space_group_name_H-M   'P 1'
_cell_length_a   8.76411715
_cell_length_b   8.78179656
_cell_length_c   8.78035317
_cell_angle_alpha   60.31344308
_cell_angle_beta   60.18779307
_cell_angle_gamma   60.12736390
_symmetry_Int_Tables_number   1
_chemical_formula_structural   Na2Li4Ti3Al(PO4)6
_chemical_formula_sum   'Na2 Li4 Ti3 Al1 P6 O24'
_cell_volume   480.11107771
_cell_formula_units_Z   1
loop_
 _symmetry_equiv_pos_site_id
 _symmetry_equiv_pos_as_xyz
  1  'x, y, z'
loop_
 _atom_site_type_symbol
 _atom_site_label
 _atom_site_symmetry_multiplicity
 _atom_site_fract_x
 _atom_site_fract_y
 _atom_site_fract_z
 _atom_site_occupancy
  Na  Na0  1  0.012293  0.998868  0.008876  1
  Na  Na1  1  0.495893  0.490661  0.498707  1
  Li  Li2  1  0.253255  0.841661  0.653001  1
  Li  Li3  1  0.747840  0.150833  0.342016  1
  Li  Li4  1  0.748469  0.758944  0.152474  1
  Li  Li5  1  0.748373  0.339659  0.759733  1
  Ti  Ti6  1  0.069319  0.637164  0.645416  1
  Ti  Ti7  1  0.434442  0.853027  0.861307  1
  Ti  Ti8  1  0.945748  0.351996  0.349479  1
  Al  Al9  1  0.550862  0.151450  0.149565  1
  P  P10  1  0.252846  0.247456  0.539852  1
  P  P11  1  0.255352  0.956798  0.253099  1
  P  P12  1  0.254275  0.537486  0.958205  1
  P  P13  1  0.747561  0.451935  0.040003  1
  P  P14  1  0.753887  0.036416  0.759163  1
  P  P15  1  0.742054  0.760173  0.455891  1
  O  O16  1  0.067548  0.115769  0.297418  1
  O  O17  1  0.067716  0.518479  0.113667  1
  O  O18  1  0.066716  0.300144  0.514968  1
  O  O19  1  0.254763  0.071761  0.715735  1
  O  O20  1  0.251937  0.409621  0.564284  1
  O  O21  1  0.427410  0.204278  0.371331  1
  O  O22  1  0.261716  0.924251  0.092647  1
  O  O23  1  0.257411  0.783481  0.430999  1
  O  O24  1  0.258342  0.561052  0.769486  1
  O  O25  1  0.574590  0.620222  0.012462  1
  O  O26  1  0.734218  0.265949  0.070515  1
  O  O27  1  0.584945  0.002866  0.787537  1
  O  O28  1  0.428216  0.002403  0.200724  1
  O  O29  1  0.255205  0.726749  0.928465  1
  O  O30  1  0.428394  0.372575  0.998239  1
  O  O31  1  0.755333  0.418864  0.229213  1
  O  O32  1  0.757651  0.225563  0.596675  1
  O  O33  1  0.736262  0.066668  0.929862  1
  O  O34  1  0.562346  0.790310  0.622651  1
  O  O35  1  0.754635  0.596381  0.419442  1
  O  O36  1  0.731702  0.929484  0.271237  1
  O  O37  1  0.912924  0.730733  0.487215  1
  O  O38  1  0.921751  0.477027  0.872590  1
  O  O39  1  0.935804  0.871844  0.724850  1
