# generated using pymatgen
data_Li2V3CoO8
_symmetry_space_group_name_H-M   'P 1'
_cell_length_a   8.36145904
_cell_length_b   8.30449079
_cell_length_c   8.31602544
_cell_angle_alpha   90.28422320
_cell_angle_beta   90.03079142
_cell_angle_gamma   89.74922514
_symmetry_Int_Tables_number   1
_chemical_formula_structural   Li2V3CoO8
_chemical_formula_sum   'Li8 V12 Co4 O32'
_cell_volume   577.43263030
_cell_formula_units_Z   4
loop_
 _symmetry_equiv_pos_site_id
 _symmetry_equiv_pos_as_xyz
  1  'x, y, z'
loop_
 _atom_site_type_symbol
 _atom_site_label
 _atom_site_symmetry_multiplicity
 _atom_site_fract_x
 _atom_site_fract_y
 _atom_site_fract_z
 _atom_site_occupancy
  Li  Li0  1  0.001568  0.003217  0.004317  1
  Li  Li1  1  0.247092  0.246506  0.247970  1
  Li  Li2  1  0.252412  0.753263  0.748151  1
  Li  Li3  1  0.495614  0.998304  0.501697  1
  Li  Li4  1  0.501612  0.497616  0.997838  1
  Li  Li5  1  0.746965  0.252969  0.751646  1
  Li  Li6  1  0.754146  0.747446  0.252548  1
  Li  Li7  1  0.997554  0.504808  0.497679  1
  V  V8  1  0.130215  0.117751  0.622407  1
  V  V9  1  0.125669  0.369846  0.880507  1
  V  V10  1  0.121068  0.624174  0.128293  1
  V  V11  1  0.375952  0.371135  0.625722  1
  V  V12  1  0.376610  0.630836  0.385310  1
  V  V13  1  0.367287  0.879175  0.127440  1
  V  V14  1  0.632944  0.377998  0.377834  1
  V  V15  1  0.627700  0.128332  0.121988  1
  V  V16  1  0.618849  0.874802  0.864601  1
  V  V17  1  0.877377  0.123092  0.373894  1
  V  V18  1  0.878873  0.874256  0.620520  1
  V  V19  1  0.869567  0.621569  0.873257  1
  Co  Co20  1  0.126885  0.876990  0.375468  1
  Co  Co21  1  0.373342  0.124409  0.875304  1
  Co  Co22  1  0.623985  0.625920  0.625025  1
  Co  Co23  1  0.872643  0.375458  0.122450  1
  O  O24  1  0.114903  0.112703  0.386967  1
  O  O25  1  0.123172  0.890986  0.611800  1
  O  O26  1  0.115764  0.603184  0.881608  1
  O  O27  1  0.137624  0.140806  0.865134  1
  O  O28  1  0.103993  0.378526  0.112682  1
  O  O29  1  0.135230  0.356612  0.634064  1
  O  O30  1  0.142025  0.641958  0.366763  1
  O  O31  1  0.139363  0.870605  0.142237  1
  O  O32  1  0.362102  0.127454  0.644698  1
  O  O33  1  0.362636  0.359474  0.864113  1
  O  O34  1  0.370213  0.644860  0.141802  1
  O  O35  1  0.388959  0.622608  0.607476  1
  O  O36  1  0.359672  0.867426  0.362481  1
  O  O37  1  0.395860  0.388330  0.380197  1
  O  O38  1  0.388306  0.108973  0.111714  1
  O  O39  1  0.386182  0.889319  0.888364  1
  O  O40  1  0.615061  0.394431  0.611191  1
  O  O41  1  0.614377  0.614995  0.389950  1
  O  O42  1  0.616307  0.892254  0.106645  1
  O  O43  1  0.635684  0.357299  0.133121  1
  O  O44  1  0.605085  0.112354  0.883826  1
  O  O45  1  0.634184  0.136104  0.361840  1
  O  O46  1  0.629483  0.862642  0.643312  1
  O  O47  1  0.635719  0.634771  0.860878  1
  O  O48  1  0.855606  0.372371  0.357036  1
  O  O49  1  0.860808  0.140503  0.134243  1
  O  O50  1  0.863733  0.852952  0.869445  1
  O  O51  1  0.896160  0.878907  0.387032  1
  O  O52  1  0.854213  0.632943  0.639286  1
  O  O53  1  0.889909  0.115156  0.617205  1
  O  O54  1  0.886010  0.389862  0.889310  1
  O  O55  1  0.885729  0.608898  0.111854  1
