# generated using pymatgen
data_Li4ZrNb(TeO6)2
_symmetry_space_group_name_H-M   'P 1'
_cell_length_a   5.57322981
_cell_length_b   11.14464100
_cell_length_c   9.82311328
_cell_angle_alpha   28.17790776
_cell_angle_beta   50.96708036
_cell_angle_gamma   56.27528437
_symmetry_Int_Tables_number   1
_chemical_formula_structural   Li4ZrNb(TeO6)2
_chemical_formula_sum   'Li4 Zr1 Nb1 Te2 O12'
_cell_volume   223.79924282
_cell_formula_units_Z   1
loop_
 _symmetry_equiv_pos_site_id
 _symmetry_equiv_pos_as_xyz
  1  'x, y, z'
loop_
 _atom_site_type_symbol
 _atom_site_label
 _atom_site_symmetry_multiplicity
 _atom_site_fract_x
 _atom_site_fract_y
 _atom_site_fract_z
 _atom_site_occupancy
  Li  Li0  1  0.278759  0.497187  0.282933  1
  Li  Li1  1  0.776356  0.504727  0.772370  1
  Li  Li2  1  0.284171  0.001340  0.277837  1
  Li  Li3  1  0.779621  0.997332  0.781372  1
  Zr  Zr4  1  0.004160  0.000722  0.002036  1
  Nb  Nb5  1  0.002656  0.499480  0.003429  1
  Te  Te6  1  0.501075  0.500538  0.501118  1
  Te  Te7  1  0.504874  0.999030  0.502885  1
  O  O8  1  0.111815  0.816569  0.741629  1
  O  O9  1  0.245688  0.629854  0.612960  1
  O  O10  1  0.620485  0.673614  0.883238  1
  O  O11  1  0.723211  0.869385  0.387000  1
  O  O12  1  0.393468  0.793175  0.132699  1
  O  O13  1  0.134595  0.335311  0.722581  1
  O  O14  1  0.867521  0.680863  0.247355  1
  O  O15  1  0.241630  0.131070  0.614567  1
  O  O16  1  0.609426  0.195424  0.864347  1
  O  O17  1  0.734396  0.370997  0.383476  1
  O  O18  1  0.375412  0.314627  0.115394  1
  O  O19  1  0.881880  0.188751  0.241977  1
