# generated using pymatgen
data_LiV2(PO4)2
_symmetry_space_group_name_H-M   'P 1'
_cell_length_a   10.33911621
_cell_length_b   4.83055360
_cell_length_c   5.91902873
_cell_angle_alpha   89.07141090
_cell_angle_beta   90.00000000
_cell_angle_gamma   90.00000000
_symmetry_Int_Tables_number   1
_chemical_formula_structural   LiV2(PO4)2
_chemical_formula_sum   'Li2 V4 P4 O16'
_cell_volume   295.57910552
_cell_formula_units_Z   2
loop_
 _symmetry_equiv_pos_site_id
 _symmetry_equiv_pos_as_xyz
  1  'x, y, z'
loop_
 _atom_site_type_symbol
 _atom_site_label
 _atom_site_symmetry_multiplicity
 _atom_site_fract_x
 _atom_site_fract_y
 _atom_site_fract_z
 _atom_site_occupancy
  Li  Li0  1  0.251202  0.505192  0.238484  1
  Li  Li1  1  0.751202  0.994808  0.761516  1
  V  V2  1  0.025934  0.976810  0.003143  1
  V  V3  1  0.475617  0.030797  0.499604  1
  V  V4  1  0.525934  0.523190  0.996857  1
  V  V5  1  0.975617  0.469203  0.500396  1
  P  P6  1  0.158122  0.902991  0.503439  1
  P  P7  1  0.344964  0.080219  0.000361  1
  P  P8  1  0.658122  0.597009  0.496561  1
  P  P9  1  0.844964  0.419781  0.999639  1
  O  O10  1  0.079315  0.762054  0.700724  1
  O  O11  1  0.090409  0.745429  0.299018  1
  O  O12  1  0.140974  0.216668  0.490298  1
  O  O13  1  0.206916  0.191293  0.007134  1
  O  O14  1  0.300622  0.816150  0.499199  1
  O  O15  1  0.355775  0.766773  0.013531  1
  O  O16  1  0.423530  0.207347  0.792828  1
  O  O17  1  0.418541  0.224211  0.208523  1
  O  O18  1  0.579315  0.737946  0.299276  1
  O  O19  1  0.590409  0.754571  0.700982  1
  O  O20  1  0.640974  0.283332  0.509702  1
  O  O21  1  0.706916  0.308707  0.992866  1
  O  O22  1  0.800622  0.683850  0.500801  1
  O  O23  1  0.855775  0.733227  0.986469  1
  O  O24  1  0.923530  0.292653  0.207172  1
  O  O25  1  0.918541  0.275789  0.791477  1
