# generated using pymatgen
data_Li2Cr3FeO8
_symmetry_space_group_name_H-M   'P 1'
_cell_length_a   8.38049579
_cell_length_b   8.39961575
_cell_length_c   8.41706974
_cell_angle_alpha   89.73750291
_cell_angle_beta   89.91053527
_cell_angle_gamma   90.23218399
_symmetry_Int_Tables_number   1
_chemical_formula_structural   Li2Cr3FeO8
_chemical_formula_sum   'Li8 Cr12 Fe4 O32'
_cell_volume   592.49049983
_cell_formula_units_Z   4
loop_
 _symmetry_equiv_pos_site_id
 _symmetry_equiv_pos_as_xyz
  1  'x, y, z'
loop_
 _atom_site_type_symbol
 _atom_site_label
 _atom_site_symmetry_multiplicity
 _atom_site_fract_x
 _atom_site_fract_y
 _atom_site_fract_z
 _atom_site_occupancy
  Li  Li0  1  0.998682  0.996367  -0.000237  1
  Li  Li1  1  0.252076  0.249218  0.253719  1
  Li  Li2  1  0.247545  0.748711  0.752593  1
  Li  Li3  1  0.501356  0.003252  0.497753  1
  Li  Li4  1  0.500686  0.502403  0.001092  1
  Li  Li5  1  0.749092  0.247085  0.750317  1
  Li  Li6  1  0.749014  0.751812  0.249275  1
  Li  Li7  1  0.002481  0.500889  0.499404  1
  Cr  Cr8  1  0.124623  0.122871  0.625063  1
  Cr  Cr9  1  0.125988  0.372231  0.874618  1
  Cr  Cr10  1  0.121946  0.629183  0.123457  1
  Cr  Cr11  1  0.374605  0.378630  0.623934  1
  Cr  Cr12  1  0.376853  0.627922  0.375964  1
  Cr  Cr13  1  0.374936  0.875041  0.127451  1
  Cr  Cr14  1  0.623786  0.375667  0.372991  1
  Cr  Cr15  1  0.627321  0.122457  0.125456  1
  Cr  Cr16  1  0.627583  0.874898  0.878368  1
  Cr  Cr17  1  0.873219  0.120628  0.369621  1
  Cr  Cr18  1  0.876303  0.874438  0.624561  1
  Cr  Cr19  1  0.874560  0.625755  0.876379  1
  Fe  Fe20  1  0.123102  0.874957  0.373415  1
  Fe  Fe21  1  0.374983  0.125347  0.877064  1
  Fe  Fe22  1  0.627411  0.623414  0.621684  1
  Fe  Fe23  1  0.874868  0.374467  0.124321  1
  O  O24  1  0.113309  0.103210  0.386306  1
  O  O25  1  0.106756  0.882299  0.616604  1
  O  O26  1  0.106713  0.605290  0.884675  1
  O  O27  1  0.130536  0.146173  0.864109  1
  O  O28  1  0.107551  0.389312  0.114324  1
  O  O29  1  0.142198  0.363352  0.638086  1
  O  O30  1  0.135097  0.647085  0.362261  1
  O  O31  1  0.139584  0.866534  0.133605  1
  O  O32  1  0.365985  0.144749  0.639328  1
  O  O33  1  0.353035  0.370577  0.865216  1
  O  O34  1  0.361021  0.646891  0.135178  1
  O  O35  1  0.382794  0.605816  0.615690  1
  O  O36  1  0.363832  0.870916  0.356468  1
  O  O37  1  0.384710  0.390231  0.389320  1
  O  O38  1  0.393331  0.108849  0.119901  1
  O  O39  1  0.385253  0.885658  0.897949  1
  O  O40  1  0.605392  0.381981  0.613528  1
  O  O41  1  0.614566  0.614634  0.388843  1
  O  O42  1  0.611259  0.887896  0.115597  1
  O  O43  1  0.643531  0.360818  0.132117  1
  O  O44  1  0.614773  0.113863  0.896920  1
  O  O45  1  0.634185  0.136812  0.352540  1
  O  O46  1  0.647293  0.864530  0.636956  1
  O  O47  1  0.647188  0.635125  0.863677  1
  O  O48  1  0.867873  0.357301  0.356425  1
  O  O49  1  0.856849  0.129138  0.131634  1
  O  O50  1  0.866359  0.860464  0.860602  1
  O  O51  1  0.885506  0.882952  0.389582  1
  O  O52  1  0.872994  0.640842  0.644031  1
  O  O53  1  0.884273  0.103672  0.608498  1
  O  O54  1  0.890976  0.386795  0.888473  1
  O  O55  1  0.882262  0.618727  0.103433  1
