# generated using pymatgen
data_Li2Ni3(BO3)3
_symmetry_space_group_name_H-M   'P 1'
_cell_length_a   8.10377924
_cell_length_b   8.10223789
_cell_length_c   6.06152079
_cell_angle_alpha   90.07892052
_cell_angle_beta   89.91082422
_cell_angle_gamma   60.07012371
_symmetry_Int_Tables_number   1
_chemical_formula_structural   Li2Ni3(BO3)3
_chemical_formula_sum   'Li4 Ni6 B6 O18'
_cell_volume   344.91287007
_cell_formula_units_Z   2
loop_
 _symmetry_equiv_pos_site_id
 _symmetry_equiv_pos_as_xyz
  1  'x, y, z'
loop_
 _atom_site_type_symbol
 _atom_site_label
 _atom_site_symmetry_multiplicity
 _atom_site_fract_x
 _atom_site_fract_y
 _atom_site_fract_z
 _atom_site_occupancy
  Li  Li0  1  0.276995  0.697373  0.254970  1
  Li  Li1  1  0.023985  0.276062  0.749679  1
  Li  Li2  1  0.699463  0.025031  0.754553  1
  Li  Li3  1  0.699979  0.024102  0.251735  1
  Ni  Ni4  1  0.379600  0.983669  0.997970  1
  Ni  Ni5  1  0.375920  0.984120  0.498162  1
  Ni  Ni6  1  0.632188  0.385327  0.002119  1
  Ni  Ni7  1  0.631724  0.384936  0.504711  1
  Ni  Ni8  1  0.991079  0.626868  0.002442  1
  Ni  Ni9  1  0.988653  0.626684  0.500952  1
  B  B10  1  0.334203  0.331532  0.250976  1
  B  B11  1  0.336695  0.330654  0.749696  1
  B  B12  1  0.997888  0.000292  0.002833  1
  B  B13  1  0.993795  0.000283  0.501510  1
  B  B14  1  0.671478  0.668015  0.751703  1
  B  B15  1  0.662917  0.667041  0.251330  1
  O  O16  1  0.088311  0.804138  0.489790  1
  O  O17  1  0.091014  0.804432  0.019305  1
  O  O18  1  0.464752  0.783788  0.247702  1
  O  O19  1  0.476734  0.784027  0.747926  1
  O  O20  1  0.140635  0.454161  0.251257  1
  O  O21  1  0.140893  0.445857  0.750046  1
  O  O22  1  0.103402  0.089416  0.984332  1
  O  O23  1  0.098978  0.090487  0.512528  1
  O  O24  1  0.790088  0.747536  0.755003  1
  O  O25  1  0.779984  0.747542  0.252194  1
  O  O26  1  0.451524  0.411034  0.253934  1
  O  O27  1  0.458788  0.402049  0.754054  1
  O  O28  1  0.414297  0.133999  0.745944  1
  O  O29  1  0.413596  0.135842  0.247893  1
  O  O30  1  0.752129  0.470497  0.752139  1
  O  O31  1  0.740832  0.472186  0.253875  1
  O  O32  1  0.800572  0.101719  0.003116  1
  O  O33  1  0.796757  0.100998  0.503399  1
