# generated using pymatgen
data_Cr(SO4)2
_symmetry_space_group_name_H-M   'P 1'
_cell_length_a   9.11040230
_cell_length_b   8.98868612
_cell_length_c   13.45145197
_cell_angle_alpha   90.00000000
_cell_angle_beta   90.00000000
_cell_angle_gamma   90.00000000
_symmetry_Int_Tables_number   1
_chemical_formula_structural   Cr(SO4)2
_chemical_formula_sum   'Cr8 S16 O64'
_cell_volume   1101.54675575
_cell_formula_units_Z   8
loop_
 _symmetry_equiv_pos_site_id
 _symmetry_equiv_pos_as_xyz
  1  'x, y, z'
loop_
 _atom_site_type_symbol
 _atom_site_label
 _atom_site_symmetry_multiplicity
 _atom_site_fract_x
 _atom_site_fract_y
 _atom_site_fract_z
 _atom_site_occupancy
  Cr  Cr0  1  0.139703  0.105953  0.125740  1
  Cr  Cr1  1  0.139703  0.394047  0.625740  1
  Cr  Cr2  1  0.360297  0.605953  0.125740  1
  Cr  Cr3  1  0.360297  0.894047  0.625740  1
  Cr  Cr4  1  0.639703  0.105953  0.374260  1
  Cr  Cr5  1  0.639703  0.394047  0.874260  1
  Cr  Cr6  1  0.860297  0.605953  0.374260  1
  Cr  Cr7  1  0.860297  0.894047  0.874260  1
  S  S8  1  0.075708  0.065659  0.722607  1
  S  S9  1  0.075708  0.434341  0.222607  1
  S  S10  1  0.158667  0.688316  0.488614  1
  S  S11  1  0.158667  0.811684  0.988614  1
  S  S12  1  0.341333  0.188316  0.488614  1
  S  S13  1  0.341333  0.311684  0.988614  1
  S  S14  1  0.424292  0.934341  0.222607  1
  S  S15  1  0.424292  0.565659  0.722607  1
  S  S16  1  0.575708  0.434341  0.277393  1
  S  S17  1  0.575708  0.065659  0.777393  1
  S  S18  1  0.658667  0.688316  0.011386  1
  S  S19  1  0.658667  0.811684  0.511386  1
  S  S20  1  0.841333  0.188316  0.011386  1
  S  S21  1  0.841333  0.311684  0.511386  1
  S  S22  1  0.924292  0.565659  0.777393  1
  S  S23  1  0.924292  0.934341  0.277393  1
  O  O24  1  0.994969  0.701418  0.472465  1
  O  O25  1  0.994969  0.798582  0.972465  1
  O  O26  1  0.016810  0.988925  0.356601  1
  O  O27  1  0.016810  0.511075  0.856601  1
  O  O28  1  0.022309  0.472862  0.325150  1
  O  O29  1  0.022309  0.027138  0.825150  1
  O  O30  1  0.085463  0.233742  0.722212  1
  O  O31  1  0.085463  0.266258  0.222212  1
  O  O32  1  0.187332  0.722724  0.081287  1
  O  O33  1  0.187332  0.777276  0.581287  1
  O  O34  1  0.193301  0.970821  0.014863  1
  O  O35  1  0.193301  0.529179  0.514863  1
  O  O36  1  0.229925  0.005649  0.717976  1
  O  O37  1  0.229925  0.494351  0.217976  1
  O  O38  1  0.240875  0.733555  0.402196  1
  O  O39  1  0.240875  0.766445  0.902196  1
  O  O40  1  0.259125  0.233555  0.402196  1
  O  O41  1  0.259125  0.266445  0.902196  1
  O  O42  1  0.270075  0.994351  0.217976  1
  O  O43  1  0.270075  0.505649  0.717976  1
  O  O44  1  0.306699  0.029179  0.514863  1
  O  O45  1  0.306699  0.470821  0.014863  1
  O  O46  1  0.312668  0.222724  0.081287  1
  O  O47  1  0.312668  0.277276  0.581287  1
  O  O48  1  0.414537  0.766258  0.222212  1
  O  O49  1  0.414537  0.733742  0.722212  1
  O  O50  1  0.477691  0.527138  0.825150  1
  O  O51  1  0.477691  0.972862  0.325150  1
  O  O52  1  0.483190  0.488925  0.356601  1
  O  O53  1  0.483190  0.011075  0.856601  1
  O  O54  1  0.505031  0.201418  0.472465  1
  O  O55  1  0.505031  0.298582  0.972465  1
  O  O56  1  0.494969  0.701418  0.027535  1
  O  O57  1  0.494969  0.798582  0.527535  1
  O  O58  1  0.516810  0.511075  0.643399  1
  O  O59  1  0.516810  0.988925  0.143399  1
  O  O60  1  0.522309  0.472862  0.174850  1
  O  O61  1  0.522309  0.027138  0.674850  1
  O  O62  1  0.585463  0.266258  0.277788  1
  O  O63  1  0.585463  0.233742  0.777788  1
  O  O64  1  0.687332  0.722724  0.418713  1
  O  O65  1  0.687332  0.777276  0.918713  1
  O  O66  1  0.693301  0.529179  0.985137  1
  O  O67  1  0.693301  0.970821  0.485137  1
  O  O68  1  0.729925  0.494351  0.282024  1
  O  O69  1  0.729925  0.005649  0.782024  1
  O  O70  1  0.740875  0.733555  0.097804  1
  O  O71  1  0.740875  0.766445  0.597804  1
  O  O72  1  0.759125  0.233555  0.097804  1
  O  O73  1  0.759125  0.266445  0.597804  1
  O  O74  1  0.770075  0.505649  0.782024  1
  O  O75  1  0.770075  0.994351  0.282024  1
  O  O76  1  0.806699  0.470821  0.485137  1
  O  O77  1  0.806699  0.029179  0.985137  1
  O  O78  1  0.812668  0.222724  0.418713  1
  O  O79  1  0.812668  0.277276  0.918713  1
  O  O80  1  0.914537  0.733742  0.777788  1
  O  O81  1  0.914537  0.766258  0.277788  1
  O  O82  1  0.977691  0.527138  0.674850  1
  O  O83  1  0.977691  0.972862  0.174850  1
  O  O84  1  0.983190  0.011075  0.643399  1
  O  O85  1  0.983190  0.488925  0.143399  1
  O  O86  1  0.005031  0.201418  0.027535  1
  O  O87  1  0.005031  0.298582  0.527535  1
