# generated using pymatgen
data_Li2CrFe3O8
_symmetry_space_group_name_H-M   'P 1'
_cell_length_a   5.89027544
_cell_length_b   5.93014740
_cell_length_c   9.59957305
_cell_angle_alpha   90.05820477
_cell_angle_beta   89.97070108
_cell_angle_gamma   120.22417125
_symmetry_Int_Tables_number   1
_chemical_formula_structural   Li2CrFe3O8
_chemical_formula_sum   'Li4 Cr2 Fe6 O16'
_cell_volume   289.73299259
_cell_formula_units_Z   2
loop_
 _symmetry_equiv_pos_site_id
 _symmetry_equiv_pos_as_xyz
  1  'x, y, z'
loop_
 _atom_site_type_symbol
 _atom_site_label
 _atom_site_symmetry_multiplicity
 _atom_site_fract_x
 _atom_site_fract_y
 _atom_site_fract_z
 _atom_site_occupancy
  Li  Li0  1  0.336017  0.667960  0.894385  1
  Li  Li1  1  0.000510  0.000048  0.997427  1
  Li  Li2  1  -0.000510  -0.000462  0.497427  1
  Li  Li3  1  0.663983  0.331943  0.394385  1
  Cr  Cr4  1  0.328182  0.664080  0.484680  1
  Cr  Cr5  1  0.671818  0.335898  0.984680  1
  Fe  Fe6  1  0.169414  0.831183  0.212919  1
  Fe  Fe7  1  0.168832  0.338268  0.213358  1
  Fe  Fe8  1  0.662555  0.831409  0.213109  1
  Fe  Fe9  1  0.337445  0.168853  0.713109  1
  Fe  Fe10  1  0.830586  0.661770  0.712919  1
  Fe  Fe11  1  0.831168  0.169435  0.713358  1
  O  O12  1  0.160257  0.833363  0.600938  1
  O  O13  1  0.037523  0.518298  0.340958  1
  O  O14  1  0.333229  0.667541  0.102493  1
  O  O15  1  0.000946  -0.000665  0.310224  1
  O  O16  1  0.999054  0.998389  0.810224  1
  O  O17  1  0.158487  0.327193  0.601483  1
  O  O18  1  0.474408  0.957547  0.341733  1
  O  O19  1  0.472295  0.514835  0.341214  1
  O  O20  1  0.331874  0.166353  0.098997  1
  O  O21  1  0.668126  0.834480  0.598997  1
  O  O22  1  0.525592  0.483140  0.841733  1
  O  O23  1  0.527705  0.042540  0.841214  1
  O  O24  1  0.666771  0.334312  0.602493  1
  O  O25  1  0.839743  0.673107  0.100938  1
  O  O26  1  0.962477  0.480773  0.840958  1
  O  O27  1  0.841513  0.168707  0.101484  1
