# generated using pymatgen
data_LiCuCSO7
_symmetry_space_group_name_H-M   'P 1'
_cell_length_a   8.91677969
_cell_length_b   6.20733467
_cell_length_c   5.16277037
_cell_angle_alpha   90.00000000
_cell_angle_beta   86.59240564
_cell_angle_gamma   90.00000000
_symmetry_Int_Tables_number   1
_chemical_formula_structural   LiCuCSO7
_chemical_formula_sum   'Li2 Cu2 C2 S2 O14'
_cell_volume   285.25119752
_cell_formula_units_Z   2
loop_
 _symmetry_equiv_pos_site_id
 _symmetry_equiv_pos_as_xyz
  1  'x, y, z'
loop_
 _atom_site_type_symbol
 _atom_site_label
 _atom_site_symmetry_multiplicity
 _atom_site_fract_x
 _atom_site_fract_y
 _atom_site_fract_z
 _atom_site_occupancy
  Li  Li0  1  0.212044  0.498377  0.232249  1
  Li  Li1  1  0.787956  0.998377  0.767751  1
  Cu  Cu2  1  0.349861  0.754130  0.773682  1
  Cu  Cu3  1  0.650139  0.254130  0.226318  1
  C  C4  1  0.071367  0.743565  0.726275  1
  C  C5  1  0.928633  0.243565  0.273725  1
  S  S6  1  0.425952  0.251348  0.721536  1
  S  S7  1  0.574048  0.751348  0.278464  1
  O  O8  1  0.066307  0.271316  0.297797  1
  O  O9  1  0.132006  0.737877  0.949705  1
  O  O10  1  0.168363  0.724003  0.526729  1
  O  O11  1  0.326065  0.065922  0.791718  1
  O  O12  1  0.337179  0.440062  0.828070  1
  O  O13  1  0.426583  0.737568  0.164131  1
  O  O14  1  0.448261  0.273681  0.433004  1
  O  O15  1  0.551739  0.773681  0.566996  1
  O  O16  1  0.573417  0.237568  0.835869  1
  O  O17  1  0.662821  0.940062  0.171930  1
  O  O18  1  0.673935  0.565922  0.208282  1
  O  O19  1  0.831637  0.224003  0.473271  1
  O  O20  1  0.867994  0.237877  0.050295  1
  O  O21  1  0.933693  0.771316  0.702203  1
