# generated using pymatgen
data_Li4Mn5SnO12
_symmetry_space_group_name_H-M   'P 1'
_cell_length_a   5.37967162
_cell_length_b   5.23006697
_cell_length_c   10.30973025
_cell_angle_alpha   89.53023703
_cell_angle_beta   89.08658574
_cell_angle_gamma   59.04916120
_symmetry_Int_Tables_number   1
_chemical_formula_structural   Li4Mn5SnO12
_chemical_formula_sum   'Li4 Mn5 Sn1 O12'
_cell_volume   248.73930006
_cell_formula_units_Z   1
loop_
 _symmetry_equiv_pos_site_id
 _symmetry_equiv_pos_as_xyz
  1  'x, y, z'
loop_
 _atom_site_type_symbol
 _atom_site_label
 _atom_site_symmetry_multiplicity
 _atom_site_fract_x
 _atom_site_fract_y
 _atom_site_fract_z
 _atom_site_occupancy
  Li  Li0  1  0.138269  0.490431  0.747721  1
  Li  Li1  1  0.371301  0.490431  0.252279  1
  Li  Li2  1  0.628699  0.509569  0.747721  1
  Li  Li3  1  0.861731  0.509569  0.252279  1
  Mn  Mn4  1  0.163763  0.672472  0.500000  1
  Mn  Mn5  1  0.663577  0.672846  0.000000  1
  Mn  Mn6  1  0.336423  0.327154  1.000000  1
  Mn  Mn7  1  0.836237  0.327528  0.500000  1
  Mn  Mn8  1  0.500000  0.000000  0.500000  1
  Sn  Sn9  1  0.000000  0.000000  0.000000  1
  O  O10  1  0.045106  0.641145  0.113126  1
  O  O11  1  0.313750  0.641145  0.886874  1
  O  O12  1  0.170960  0.361853  0.394097  1
  O  O13  1  0.532813  0.638147  0.394097  1
  O  O14  1  0.467187  0.361853  0.605903  1
  O  O15  1  0.174318  0.000000  0.587237  1
  O  O16  1  0.829040  0.638147  0.605903  1
  O  O17  1  0.686249  0.358855  0.113126  1
  O  O18  1  0.340071  0.000000  0.095684  1
  O  O19  1  0.954894  0.358855  0.886874  1
  O  O20  1  0.659929  1.000000  0.904316  1
  O  O21  1  0.825682  1.000000  0.412763  1
