# generated using pymatgen
data_Li2Cu(PO3)4
_symmetry_space_group_name_H-M   'P 1'
_cell_length_a   7.90803628
_cell_length_b   7.90803628
_cell_length_c   8.26614054
_cell_angle_alpha   84.36345576
_cell_angle_beta   95.63654424
_cell_angle_gamma   77.20518355
_symmetry_Int_Tables_number   1
_chemical_formula_structural   Li2Cu(PO3)4
_chemical_formula_sum   'Li4 Cu2 P8 O24'
_cell_volume   497.81858942
_cell_formula_units_Z   2
loop_
 _symmetry_equiv_pos_site_id
 _symmetry_equiv_pos_as_xyz
  1  'x, y, z'
loop_
 _atom_site_type_symbol
 _atom_site_label
 _atom_site_symmetry_multiplicity
 _atom_site_fract_x
 _atom_site_fract_y
 _atom_site_fract_z
 _atom_site_occupancy
  Li  Li0  1  0.548731  0.821630  0.948656  1
  Li  Li1  1  0.178370  0.451269  0.448656  1
  Li  Li2  1  0.834753  0.522660  0.542702  1
  Li  Li3  1  0.477340  0.165247  0.042702  1
  Cu  Cu4  1  0.183350  0.105305  0.746524  1
  Cu  Cu5  1  0.894695  0.816650  0.246524  1
  P  P6  1  0.074076  0.758775  0.688476  1
  P  P7  1  0.241225  0.925924  0.188476  1
  P  P8  1  0.182144  0.444165  0.921681  1
  P  P9  1  0.555835  0.817856  0.421681  1
  P  P10  1  0.507298  0.147768  0.582469  1
  P  P11  1  0.852232  0.492702  0.082469  1
  P  P12  1  0.823303  0.029660  0.819544  1
  P  P13  1  0.970340  0.176697  0.319544  1
  O  O14  1  0.168194  0.898264  0.641535  1
  O  O15  1  0.032722  0.645260  0.560712  1
  O  O16  1  0.101736  0.831806  0.141535  1
  O  O17  1  0.354740  0.967278  0.060712  1
  O  O18  1  0.187755  0.640971  0.850086  1
  O  O19  1  0.359029  0.812245  0.350086  1
  O  O20  1  0.713464  0.001020  0.953991  1
  O  O21  1  0.210070  0.336843  0.780508  1
  O  O22  1  0.998980  0.286536  0.453991  1
  O  O23  1  0.614074  0.694954  0.575888  1
  O  O24  1  0.663157  0.789930  0.280508  1
  O  O25  1  0.305046  0.385926  0.075888  1
  O  O26  1  0.892540  0.842744  0.755094  1
  O  O27  1  0.673321  0.576565  0.000356  1
  O  O28  1  0.157256  0.107460  0.255094  1
  O  O29  1  0.423435  0.326679  0.500356  1
  O  O30  1  0.430163  0.056529  0.717935  1
  O  O31  1  0.978227  0.464762  0.941193  1
  O  O32  1  0.943471  0.569837  0.217935  1
  O  O33  1  0.535238  0.021773  0.441193  1
  O  O34  1  0.704806  0.145198  0.658590  1
  O  O35  1  0.854802  0.295194  0.158590  1
  O  O36  1  0.972194  0.116777  0.853446  1
  O  O37  1  0.883223  0.027806  0.353446  1
