# generated using pymatgen
data_Li2FePCO7
_symmetry_space_group_name_H-M   'P 1'
_cell_length_a   8.30268178
_cell_length_b   5.07660240
_cell_length_c   6.51401561
_cell_angle_alpha   89.51894308
_cell_angle_beta   91.21485697
_cell_angle_gamma   85.02297664
_symmetry_Int_Tables_number   1
_chemical_formula_structural   Li2FePCO7
_chemical_formula_sum   'Li4 Fe2 P2 C2 O14'
_cell_volume   273.45080197
_cell_formula_units_Z   2
loop_
 _symmetry_equiv_pos_site_id
 _symmetry_equiv_pos_as_xyz
  1  'x, y, z'
loop_
 _atom_site_type_symbol
 _atom_site_label
 _atom_site_symmetry_multiplicity
 _atom_site_fract_x
 _atom_site_fract_y
 _atom_site_fract_z
 _atom_site_occupancy
  Li  Li0  1  0.098366  0.761628  0.263455  1
  Li  Li1  1  0.275361  0.249193  0.029778  1
  Li  Li2  1  0.724639  0.750807  0.970222  1
  Li  Li3  1  0.901634  0.238372  0.736545  1
  Fe  Fe4  1  0.329677  0.798419  0.739249  1
  Fe  Fe5  1  0.670323  0.201581  0.260751  1
  P  P6  1  0.420240  0.723122  0.239569  1
  P  P7  1  0.579760  0.276878  0.760431  1
  C  C8  1  0.040493  0.701218  0.767061  1
  C  C9  1  0.959507  0.298782  0.232939  1
  O  O10  1  0.076074  0.946872  0.746641  1
  O  O11  1  0.101660  0.367881  0.215052  1
  O  O12  1  0.165739  0.525067  0.765036  1
  O  O13  1  0.301472  0.828175  0.063682  1
  O  O14  1  0.322545  0.782708  0.436120  1
  O  O15  1  0.420042  0.143461  0.767700  1
  O  O16  1  0.460510  0.419044  0.215683  1
  O  O17  1  0.539490  0.580956  0.784317  1
  O  O18  1  0.579958  0.856539  0.232300  1
  O  O19  1  0.677455  0.217292  0.563880  1
  O  O20  1  0.698528  0.171825  0.936318  1
  O  O21  1  0.834261  0.474933  0.234964  1
  O  O22  1  0.898340  0.632119  0.784948  1
  O  O23  1  0.923926  0.053128  0.253359  1
