# generated using pymatgen
data_Li2MnF4
_symmetry_space_group_name_H-M   'P 1'
_cell_length_a   9.46915626
_cell_length_b   5.97137054
_cell_length_c   5.28365244
_cell_angle_alpha   90.00000000
_cell_angle_beta   90.00000000
_cell_angle_gamma   90.00000000
_symmetry_Int_Tables_number   1
_chemical_formula_structural   Li2MnF4
_chemical_formula_sum   'Li8 Mn4 F16'
_cell_volume   298.75800204
_cell_formula_units_Z   4
loop_
 _symmetry_equiv_pos_site_id
 _symmetry_equiv_pos_as_xyz
  1  'x, y, z'
loop_
 _atom_site_type_symbol
 _atom_site_label
 _atom_site_symmetry_multiplicity
 _atom_site_fract_x
 _atom_site_fract_y
 _atom_site_fract_z
 _atom_site_occupancy
  Li  Li0  1  0.000000  0.000000  0.000000  1
  Li  Li1  1  0.000000  0.500000  0.000000  1
  Li  Li2  1  0.217951  0.750000  0.464462  1
  Li  Li3  1  0.282049  0.250000  0.964462  1
  Li  Li4  1  0.500000  0.000000  0.500000  1
  Li  Li5  1  0.500000  0.500000  0.500000  1
  Li  Li6  1  0.717951  0.750000  0.035538  1
  Li  Li7  1  0.782049  0.250000  0.535538  1
  Mn  Mn8  1  0.157565  0.250000  0.469364  1
  Mn  Mn9  1  0.342435  0.750000  0.969364  1
  Mn  Mn10  1  0.657565  0.250000  0.030636  1
  Mn  Mn11  1  0.842435  0.750000  0.530636  1
  F  F12  1  0.048138  0.750000  0.682867  1
  F  F13  1  0.072699  0.250000  0.824280  1
  F  F14  1  0.195531  0.992080  0.191368  1
  F  F15  1  0.195531  0.507920  0.191368  1
  F  F16  1  0.304469  0.492080  0.691368  1
  F  F17  1  0.304469  0.007920  0.691368  1
  F  F18  1  0.427301  0.750000  0.324280  1
  F  F19  1  0.451862  0.250000  0.182867  1
  F  F20  1  0.548138  0.750000  0.817133  1
  F  F21  1  0.572699  0.250000  0.675720  1
  F  F22  1  0.695531  0.992080  0.308632  1
  F  F23  1  0.695531  0.507920  0.308632  1
  F  F24  1  0.804469  0.492080  0.808632  1
  F  F25  1  0.804469  0.007920  0.808632  1
  F  F26  1  0.927301  0.750000  0.175720  1
  F  F27  1  0.951862  0.250000  0.317133  1
