# generated using pymatgen
data_Li2V3(FeO6)2
_symmetry_space_group_name_H-M   'P 1'
_cell_length_a   12.74388232
_cell_length_b   9.24139449
_cell_length_c   9.18098876
_cell_angle_alpha   89.99998150
_cell_angle_beta   90.02954379
_cell_angle_gamma   90.00070044
_symmetry_Int_Tables_number   1
_chemical_formula_structural   Li2V3(FeO6)2
_chemical_formula_sum   'Li8 V12 Fe8 O48'
_cell_volume   1081.25632319
_cell_formula_units_Z   4
loop_
 _symmetry_equiv_pos_site_id
 _symmetry_equiv_pos_as_xyz
  1  'x, y, z'
loop_
 _atom_site_type_symbol
 _atom_site_label
 _atom_site_symmetry_multiplicity
 _atom_site_fract_x
 _atom_site_fract_y
 _atom_site_fract_z
 _atom_site_occupancy
  Li  Li0  1  0.189082  0.221448  0.273037  1
  Li  Li1  1  0.189093  0.778555  0.773029  1
  Li  Li2  1  0.310670  0.278610  0.773298  1
  Li  Li3  1  0.310674  0.721406  0.273290  1
  Li  Li4  1  0.689355  0.278611  0.726716  1
  Li  Li5  1  0.689331  0.721402  0.226717  1
  Li  Li6  1  0.810916  0.221462  0.226960  1
  Li  Li7  1  0.810908  0.778560  0.726947  1
  V  V8  1  0.000001  0.464556  0.249990  1
  V  V9  1  0.000007  0.535454  0.750006  1
  V  V10  1  0.499998  0.035263  0.750024  1
  V  V11  1  0.499992  0.964726  0.249984  1
  V  V12  1  0.143439  0.101436  0.605631  1
  V  V13  1  0.143434  0.898573  0.105634  1
  V  V14  1  0.356620  0.398598  0.105674  1
  V  V15  1  0.356621  0.601389  0.605664  1
  V  V16  1  0.643388  0.398588  0.394339  1
  V  V17  1  0.643354  0.601426  0.894339  1
  V  V18  1  0.856575  0.101442  0.894386  1
  V  V19  1  0.856577  0.898560  0.394382  1
  Fe  Fe20  1  0.120130  0.250899  0.967702  1
  Fe  Fe21  1  0.120237  0.749101  0.467666  1
  Fe  Fe22  1  0.379677  0.750778  0.967601  1
  Fe  Fe23  1  0.379816  0.249164  0.467623  1
  Fe  Fe24  1  0.620205  0.249167  0.032384  1
  Fe  Fe25  1  0.620205  0.750846  0.532385  1
  Fe  Fe26  1  0.879830  0.250905  0.532315  1
  Fe  Fe27  1  0.879835  0.749107  0.032322  1
  O  O28  1  0.017442  0.151477  0.560448  1
  O  O29  1  0.017444  0.848537  0.060445  1
  O  O30  1  0.068962  0.571275  0.370054  1
  O  O31  1  0.068975  0.428713  0.870060  1
  O  O32  1  0.090515  0.350514  0.161062  1
  O  O33  1  0.090518  0.649482  0.661101  1
  O  O34  1  0.160423  0.087841  0.105199  1
  O  O35  1  0.160437  0.912141  0.605181  1
  O  O36  1  0.174768  0.166976  0.778013  1
  O  O37  1  0.174746  0.832985  0.278000  1
  O  O38  1  0.228214  0.823861  0.976098  1
  O  O39  1  0.228230  0.176111  0.476097  1
  O  O40  1  0.271734  0.323858  0.976077  1
  O  O41  1  0.271740  0.676126  0.476039  1
  O  O42  1  0.325253  0.666952  0.777960  1
  O  O43  1  0.325268  0.333015  0.277974  1
  O  O44  1  0.339589  0.412178  0.605203  1
  O  O45  1  0.339608  0.587839  0.105212  1
  O  O46  1  0.409489  0.149474  0.661130  1
  O  O47  1  0.409471  0.850542  0.161094  1
  O  O48  1  0.431017  0.071201  0.370059  1
  O  O49  1  0.431006  0.928766  0.870070  1
  O  O50  1  0.482518  0.651427  0.560442  1
  O  O51  1  0.482524  0.348563  0.060448  1
  O  O52  1  0.517482  0.348576  0.439570  1
  O  O53  1  0.517455  0.651456  0.939558  1
  O  O54  1  0.569003  0.071195  0.129957  1
  O  O55  1  0.569009  0.928829  0.629961  1
  O  O56  1  0.590547  0.149480  0.838853  1
  O  O57  1  0.590529  0.850542  0.338869  1
  O  O58  1  0.660428  0.412193  0.894791  1
  O  O59  1  0.660420  0.587823  0.394788  1
  O  O60  1  0.674746  0.333068  0.222025  1
  O  O61  1  0.674749  0.666951  0.722016  1
  O  O62  1  0.728282  0.323861  0.523954  1
  O  O63  1  0.728258  0.676141  0.023968  1
  O  O64  1  0.771783  0.176125  0.023920  1
  O  O65  1  0.771764  0.823882  0.523892  1
  O  O66  1  0.825251  0.166934  0.721986  1
  O  O67  1  0.825227  0.833066  0.221984  1
  O  O68  1  0.839562  0.087862  0.394795  1
  O  O69  1  0.839536  0.912167  0.894787  1
  O  O70  1  0.909464  0.350520  0.338892  1
  O  O71  1  0.909466  0.649490  0.838876  1
  O  O72  1  0.931014  0.428735  0.629963  1
  O  O73  1  0.931019  0.571247  0.129965  1
  O  O74  1  0.982577  0.151456  0.939565  1
  O  O75  1  0.982571  0.848517  0.439556  1
