# generated using pymatgen
data_Na9LiFe10(SiO3)20
_symmetry_space_group_name_H-M   'P 1'
_cell_length_a   9.80861938
_cell_length_b   11.25028260
_cell_length_c   10.38370218
_cell_angle_alpha   94.86315299
_cell_angle_beta   80.88822591
_cell_angle_gamma   81.74351023
_symmetry_Int_Tables_number   1
_chemical_formula_structural   Na9LiFe10(SiO3)20
_chemical_formula_sum   'Na9 Li1 Fe10 Si20 O60'
_cell_volume   1112.85472015
_cell_formula_units_Z   1
loop_
 _symmetry_equiv_pos_site_id
 _symmetry_equiv_pos_as_xyz
  1  'x, y, z'
loop_
 _atom_site_type_symbol
 _atom_site_label
 _atom_site_symmetry_multiplicity
 _atom_site_fract_x
 _atom_site_fract_y
 _atom_site_fract_z
 _atom_site_occupancy
  Na  Na0  1  0.009337  0.981351  0.712687  1
  Na  Na1  1  0.190615  0.618742  0.487381  1
  Na  Na2  1  0.209306  0.581341  0.912604  1
  Na  Na3  1  0.390500  0.218655  0.687483  1
  Na  Na4  1  0.609448  0.781280  0.312631  1
  Na  Na5  1  0.790713  0.418637  0.087364  1
  Na  Na6  1  0.590713  0.818760  0.887420  1
  Na  Na7  1  0.809429  0.381186  0.512432  1
  Na  Na8  1  0.990564  0.018725  0.287342  1
  Li  Li9  1  0.407254  0.185506  0.121017  1
  Fe  Fe10  1  0.129912  0.740542  0.230852  1
  Fe  Fe11  1  0.070337  0.859730  0.969056  1
  Fe  Fe12  1  0.270428  0.458628  0.168640  1
  Fe  Fe13  1  0.329859  0.340287  0.430630  1
  Fe  Fe14  1  0.470456  0.059735  0.368105  1
  Fe  Fe15  1  0.529667  0.940712  0.631131  1
  Fe  Fe16  1  0.670256  0.659509  0.569016  1
  Fe  Fe17  1  0.729558  0.540318  0.831100  1
  Fe  Fe18  1  0.929796  0.140397  0.030802  1
  Fe  Fe19  1  0.870133  0.259397  0.769155  1
  Si  Si20  1  0.075664  0.268606  0.275580  1
  Si  Si21  1  0.139185  0.140561  0.518636  1
  Si  Si22  1  0.060932  0.459466  0.681150  1
  Si  Si23  1  0.125271  0.330837  0.923530  1
  Si  Si24  1  0.261341  0.060272  0.881665  1
  Si  Si25  1  0.274642  0.869305  0.476479  1
  Si  Si26  1  0.325904  0.932284  0.123182  1
  Si  Si27  1  0.339137  0.740424  0.718751  1
  Si  Si28  1  0.460778  0.660054  0.081449  1
  Si  Si29  1  0.474640  0.469040  0.676671  1
  Si  Si30  1  0.525255  0.530611  0.323584  1
  Si  Si31  1  0.538356  0.339167  0.919626  1
  Si  Si32  1  0.660395  0.259281  0.280252  1
  Si  Si33  1  0.673933  0.069175  0.877203  1
  Si  Si34  1  0.725147  0.130730  0.523517  1
  Si  Si35  1  0.739157  0.940358  0.118784  1
  Si  Si36  1  0.874687  0.669272  0.076422  1
  Si  Si37  1  0.939327  0.540337  0.318649  1
  Si  Si38  1  0.860898  0.859571  0.481290  1
  Si  Si39  1  0.925355  0.730664  0.723589  1
  O  O40  1  0.051620  0.176207  0.155954  1
  O  O41  1  0.050241  0.195957  0.408475  1
  O  O42  1  0.028885  0.712702  0.064531  1
  O  O43  1  0.049849  0.181005  0.664959  1
  O  O44  1  0.147573  0.423796  0.043797  1
  O  O45  1  0.097388  0.575866  0.291215  1
  O  O46  1  0.103380  0.023987  0.908867  1
  O  O47  1  0.047530  0.609408  0.701711  1
  O  O48  1  0.150186  0.418862  0.534620  1
  O  O49  1  0.231792  0.309251  0.261172  1
  O  O50  1  0.171959  0.887962  0.135640  1
  O  O51  1  0.150127  0.404340  0.791186  1
  O  O52  1  0.349202  0.027183  0.241414  1
  O  O53  1  0.152617  0.990597  0.497889  1
  O  O54  1  0.297323  0.176152  0.491150  1
  O  O55  1  0.303191  0.623535  0.108642  1
  O  O56  1  0.247320  0.210006  0.901434  1
  O  O57  1  0.252066  0.776624  0.356117  1
  O  O58  1  0.350165  0.018993  0.735158  1
  O  O59  1  0.249899  0.795776  0.608715  1
  O  O60  1  0.370999  0.487240  0.335618  1
  O  O61  1  0.350965  0.006769  0.991983  1
  O  O62  1  0.249993  0.781026  0.865147  1
  O  O63  1  0.448811  0.376830  0.066553  1
  O  O64  1  0.352577  0.590402  0.698185  1
  O  O65  1  0.501897  0.223413  0.304126  1
  O  O66  1  0.447183  0.810134  0.102182  1
  O  O67  1  0.452096  0.376367  0.556122  1
  O  O68  1  0.449911  0.395557  0.809245  1
  O  O69  1  0.428650  0.912818  0.463877  1
  O  O70  1  0.570957  0.087503  0.535377  1
  O  O71  1  0.549996  0.604133  0.191258  1
  O  O72  1  0.547938  0.623355  0.443780  1
  O  O73  1  0.550870  0.189531  0.900591  1
  O  O74  1  0.497137  0.775992  0.691170  1
  O  O75  1  0.647160  0.409241  0.301824  1
  O  O76  1  0.550021  0.619149  0.935159  1
  O  O77  1  0.750762  0.219063  0.134537  1
  O  O78  1  0.650114  0.995139  0.008838  1
  O  O79  1  0.628757  0.512514  0.664512  1
  O  O80  1  0.748790  0.204285  0.391129  1
  O  O81  1  0.650190  0.980762  0.265302  1
  O  O82  1  0.747844  0.223469  0.643754  1
  O  O83  1  0.752550  0.790384  0.098234  1
  O  O84  1  0.696180  0.375717  0.891754  1
  O  O85  1  0.702885  0.823978  0.508776  1
  O  O86  1  0.847428  0.009543  0.501787  1
  O  O87  1  0.651919  0.976780  0.756256  1
  O  O88  1  0.849971  0.595652  0.208682  1
  O  O89  1  0.828265  0.112718  0.864496  1
  O  O90  1  0.771188  0.687310  0.735556  1
  O  O91  1  0.849872  0.580843  0.464932  1
  O  O92  1  0.953922  0.390324  0.298079  1
  O  O93  1  0.897243  0.975887  0.091255  1
  O  O94  1  0.902823  0.423941  0.708791  1
  O  O95  1  0.852026  0.576548  0.956158  1
  O  O96  1  0.950241  0.818968  0.334919  1
  O  O97  1  0.971102  0.287493  0.935432  1
  O  O98  1  0.950127  0.804189  0.591287  1
  O  O99  1  0.948041  0.823373  0.843829  1
