# generated using pymatgen
data_Li2Fe3NiO8
_symmetry_space_group_name_H-M   'P 1'
_cell_length_a   5.97624634
_cell_length_b   5.91103991
_cell_length_c   5.95505336
_cell_angle_alpha   120.10788218
_cell_angle_beta   60.64392425
_cell_angle_gamma   90.11481906
_symmetry_Int_Tables_number   1
_chemical_formula_structural   Li2Fe3NiO8
_chemical_formula_sum   'Li2 Fe3 Ni1 O8'
_cell_volume   150.08755026
_cell_formula_units_Z   1
loop_
 _symmetry_equiv_pos_site_id
 _symmetry_equiv_pos_as_xyz
  1  'x, y, z'
loop_
 _atom_site_type_symbol
 _atom_site_label
 _atom_site_symmetry_multiplicity
 _atom_site_fract_x
 _atom_site_fract_y
 _atom_site_fract_z
 _atom_site_occupancy
  Li  Li0  1  0.500001  0.999999  0.499996  1
  Li  Li1  1  0.500000  0.500003  0.999996  1
  Fe  Fe2  1  0.999998  -0.000005  0.499998  1
  Fe  Fe3  1  0.000004  0.499996  0.499998  1
  Fe  Fe4  1  0.000004  0.499986  -0.000007  1
  Ni  Ni5  1  -0.000003  0.000012  0.000005  1
  O  O6  1  0.210578  0.283061  0.019279  1
  O  O7  1  0.215790  0.237837  0.510443  1
  O  O8  1  0.215338  0.771253  0.506995  1
  O  O9  1  0.204650  0.760314  0.049709  1
  O  O10  1  0.795347  0.239689  0.950298  1
  O  O11  1  0.784662  0.228750  0.493009  1
  O  O12  1  0.784208  0.762164  0.489562  1
  O  O13  1  0.789423  0.716941  0.980722  1
