# generated using pymatgen
data_LiVBO4
_symmetry_space_group_name_H-M   'P 1'
_cell_length_a   4.59019926
_cell_length_b   4.91552148
_cell_length_c   4.59019926
_cell_angle_alpha   62.16618165
_cell_angle_beta   90.00000000
_cell_angle_gamma   117.83381835
_symmetry_Int_Tables_number   1
_chemical_formula_structural   LiVBO4
_chemical_formula_sum   'Li1 V1 B1 O4'
_cell_volume   77.78025632
_cell_formula_units_Z   1
loop_
 _symmetry_equiv_pos_site_id
 _symmetry_equiv_pos_as_xyz
  1  'x, y, z'
loop_
 _atom_site_type_symbol
 _atom_site_label
 _atom_site_symmetry_multiplicity
 _atom_site_fract_x
 _atom_site_fract_y
 _atom_site_fract_z
 _atom_site_occupancy
  Li  Li0  1  0.500000  0.000000  0.500000  1
  V  V1  1  0.000000  0.000000  0.000000  1
  B  B2  1  0.750000  0.500000  0.750000  1
  O  O3  1  0.426064  0.272281  0.027732  1
  O  O4  1  0.699987  0.727719  0.426064  1
  O  O5  1  0.846217  0.272281  0.699987  1
  O  O6  1  0.027732  0.727719  0.846217  1
