# generated using pymatgen
data_Li2Bi(BO3)2
_symmetry_space_group_name_H-M   'P 1'
_cell_length_a   8.63821434
_cell_length_b   6.39880034
_cell_length_c   10.20526662
_cell_angle_alpha   90.00000000
_cell_angle_beta   67.24190357
_cell_angle_gamma   90.00000000
_symmetry_Int_Tables_number   1
_chemical_formula_structural   Li2Bi(BO3)2
_chemical_formula_sum   'Li8 Bi4 B8 O24'
_cell_volume   520.17170705
_cell_formula_units_Z   4
loop_
 _symmetry_equiv_pos_site_id
 _symmetry_equiv_pos_as_xyz
  1  'x, y, z'
loop_
 _atom_site_type_symbol
 _atom_site_label
 _atom_site_symmetry_multiplicity
 _atom_site_fract_x
 _atom_site_fract_y
 _atom_site_fract_z
 _atom_site_occupancy
  Li  Li0  1  0.111163  0.279709  0.484615  1
  Li  Li1  1  0.388837  0.779709  0.015385  1
  Li  Li2  1  0.279620  0.761410  0.548453  1
  Li  Li3  1  0.220380  0.261410  0.951547  1
  Li  Li4  1  0.779620  0.738590  0.048453  1
  Li  Li5  1  0.720380  0.238590  0.451547  1
  Li  Li6  1  0.611163  0.220291  0.984615  1
  Li  Li7  1  0.888837  0.720291  0.515385  1
  Bi  Bi8  1  0.013909  0.023582  0.790829  1
  Bi  Bi9  1  0.513909  0.476418  0.290829  1
  Bi  Bi10  1  0.486091  0.523582  0.709171  1
  Bi  Bi11  1  0.986091  0.976418  0.209171  1
  B  B12  1  0.279165  0.159591  0.187306  1
  B  B13  1  0.220835  0.659591  0.312694  1
  B  B14  1  0.168895  0.678533  0.889838  1
  B  B15  1  0.331105  0.178533  0.610162  1
  B  B16  1  0.668895  0.821467  0.389838  1
  B  B17  1  0.831105  0.321467  0.110162  1
  B  B18  1  0.779165  0.340409  0.687306  1
  B  B19  1  0.720835  0.840409  0.812694  1
  O  O20  1  0.066606  0.727445  0.322475  1
  O  O21  1  0.127154  0.190375  0.300151  1
  O  O22  1  0.269658  0.051038  0.071016  1
  O  O23  1  0.230342  0.551038  0.428984  1
  O  O24  1  0.372847  0.690375  0.199849  1
  O  O25  1  0.028348  0.788089  0.978459  1
  O  O26  1  0.231731  0.060736  0.559888  1
  O  O27  1  0.433395  0.227445  0.177525  1
  O  O28  1  0.216633  0.702864  0.744671  1
  O  O29  1  0.283367  0.202864  0.755329  1
  O  O30  1  0.268269  0.560736  0.940112  1
  O  O31  1  0.471652  0.288089  0.521541  1
  O  O32  1  0.528348  0.711911  0.478459  1
  O  O33  1  0.731731  0.439264  0.059888  1
  O  O34  1  0.716633  0.797136  0.244671  1
  O  O35  1  0.783367  0.297136  0.255329  1
  O  O36  1  0.566606  0.772555  0.822475  1
  O  O37  1  0.768269  0.939264  0.440112  1
  O  O38  1  0.971652  0.211911  0.021541  1
  O  O39  1  0.627154  0.309625  0.800151  1
  O  O40  1  0.769658  0.448962  0.571016  1
  O  O41  1  0.730342  0.948962  0.928984  1
  O  O42  1  0.872846  0.809625  0.699849  1
  O  O43  1  0.933394  0.272555  0.677525  1
