# generated using pymatgen
data_LiP4WO12
_symmetry_space_group_name_H-M   'P 1'
_cell_length_a   7.46096705
_cell_length_b   7.47128891
_cell_length_c   10.03880629
_cell_angle_alpha   81.45450576
_cell_angle_beta   70.34479363
_cell_angle_gamma   110.47589808
_symmetry_Int_Tables_number   1
_chemical_formula_structural   LiP4WO12
_chemical_formula_sum   'Li2 P8 W2 O24'
_cell_volume   470.67264468
_cell_formula_units_Z   2
loop_
 _symmetry_equiv_pos_site_id
 _symmetry_equiv_pos_as_xyz
  1  'x, y, z'
loop_
 _atom_site_type_symbol
 _atom_site_label
 _atom_site_symmetry_multiplicity
 _atom_site_fract_x
 _atom_site_fract_y
 _atom_site_fract_z
 _atom_site_occupancy
  Li  Li0  1  0.226892  0.974438  0.749247  1
  Li  Li1  1  0.778796  0.031153  0.246400  1
  P  P2  1  0.001958  0.685339  0.303804  1
  P  P3  1  0.271822  0.729488  0.471401  1
  P  P4  1  0.703700  0.743159  0.024222  1
  P  P5  1  0.510812  0.694378  0.806675  1
  P  P6  1  0.488695  0.303958  0.192556  1
  P  P7  1  0.297303  0.254201  0.973619  1
  P  P8  1  0.732177  0.274771  0.523652  1
  P  P9  1  0.004210  0.318148  0.690209  1
  W  W10  1  0.999445  0.498495  0.998765  1
  W  W11  1  0.999330  0.999609  0.498824  1
  O  O12  1  0.041628  0.659303  0.153989  1
  O  O13  1  0.123352  0.800475  0.571037  1
  O  O14  1  0.196915  0.685471  0.338602  1
  O  O15  1  0.501354  0.846540  0.407387  1
  O  O16  1  0.305619  0.707283  0.825523  1
  O  O17  1  0.212092  0.503988  0.564172  1
  O  O18  1  0.120883  0.297609  0.072298  1
  O  O19  1  0.752658  0.904602  0.091701  1
  O  O20  1  0.573888  0.779443  0.930203  1
  O  O21  1  0.684210  0.800721  0.655338  1
  O  O22  1  0.525421  0.533431  0.153978  1
  O  O23  1  0.033925  0.130750  0.672940  1
  O  O24  1  0.970601  0.871628  0.322239  1
  O  O25  1  0.475368  0.465094  0.844987  1
  O  O26  1  0.314757  0.199209  0.343749  1
  O  O27  1  0.425127  0.218738  0.069366  1
  O  O28  1  0.252780  0.092559  0.905813  1
  O  O29  1  0.876657  0.696990  0.924194  1
  O  O30  1  0.794616  0.499947  0.429860  1
  O  O31  1  0.693434  0.289714  0.173671  1
  O  O32  1  0.501971  0.162453  0.589373  1
  O  O33  1  0.810519  0.319436  0.654615  1
  O  O34  1  0.876474  0.199311  0.424814  1
  O  O35  1  0.962444  0.342102  0.840707  1
