# generated using pymatgen
data_Li3V4(OF3)3
_symmetry_space_group_name_H-M   'P 1'
_cell_length_a   10.46202934
_cell_length_b   10.38874790
_cell_length_c   11.15009007
_cell_angle_alpha   89.91827330
_cell_angle_beta   118.09827568
_cell_angle_gamma   120.11272356
_symmetry_Int_Tables_number   1
_chemical_formula_structural   Li3V4(OF3)3
_chemical_formula_sum   'Li12 V16 O12 F36'
_cell_volume   879.87331558
_cell_formula_units_Z   4
loop_
 _symmetry_equiv_pos_site_id
 _symmetry_equiv_pos_as_xyz
  1  'x, y, z'
loop_
 _atom_site_type_symbol
 _atom_site_label
 _atom_site_symmetry_multiplicity
 _atom_site_fract_x
 _atom_site_fract_y
 _atom_site_fract_z
 _atom_site_occupancy
  Li  Li0  1  0.252451  0.876643  0.631937  1
  Li  Li1  1  0.201011  0.599516  0.812348  1
  Li  Li2  1  0.242445  0.872376  0.119237  1
  Li  Li3  1  0.201326  0.593089  0.306323  1
  Li  Li4  1  0.301366  0.156226  0.942620  1
  Li  Li5  1  0.259905  0.377897  0.633202  1
  Li  Li6  1  0.751981  0.875603  0.630492  1
  Li  Li7  1  0.301362  0.157126  0.441134  1
  Li  Li8  1  0.744249  0.871036  0.118613  1
  Li  Li9  1  0.700452  0.594394  0.307710  1
  Li  Li10  1  0.797654  0.155303  0.941188  1
  Li  Li11  1  0.792042  0.153223  0.437958  1
  V  V12  1  0.000245  0.742608  0.742981  1
  V  V13  1  0.004366  0.743639  0.242162  1
  V  V14  1  0.017893  0.001943  0.505963  1
  V  V15  1  0.510973  0.746629  0.745276  1
  V  V16  1  0.501490  0.504830  0.516814  1
  V  V17  1  0.487406  0.252314  0.738659  1
  V  V18  1  0.018796  0.005477  0.006538  1
  V  V19  1  0.505263  0.745345  0.244756  1
  V  V20  1  0.496878  0.503337  0.013064  1
  V  V21  1  0.483211  0.249394  0.239045  1
  V  V22  1  0.516575  0.004648  0.506724  1
  V  V23  1  0.994967  0.502681  0.511658  1
  V  V24  1  0.981012  0.248095  0.738829  1
  V  V25  1  0.516230  0.004032  0.006232  1
  V  V26  1  0.992093  0.500338  0.009929  1
  V  V27  1  0.981340  0.247173  0.236499  1
  O  O28  1  0.071875  0.690004  0.635742  1
  O  O29  1  0.068087  0.689738  0.131096  1
  O  O30  1  0.563563  0.691736  0.624943  1
  O  O31  1  0.248992  0.059909  0.620860  1
  O  O32  1  0.424877  0.364943  0.615153  1
  O  O33  1  0.570206  0.691764  0.134316  1
  O  O34  1  0.248661  0.061058  0.121707  1
  O  O35  1  0.450961  0.374873  0.124567  1
  O  O36  1  0.747152  0.058782  0.617236  1
  O  O37  1  0.951198  0.373591  0.623687  1
  O  O38  1  0.745796  0.057595  0.118088  1
  O  O39  1  0.950693  0.374252  0.124923  1
  F  F40  1  0.072241  0.625766  0.882213  1
  F  F41  1  0.253720  0.941450  0.878026  1
  F  F42  1  0.074021  0.625671  0.382053  1
  F  F43  1  0.068677  0.127116  0.868915  1
  F  F44  1  0.241906  0.441204  0.873557  1
  F  F45  1  0.254132  0.942352  0.379233  1
  F  F46  1  0.429967  0.806826  0.867954  1
  F  F47  1  0.060533  0.191255  0.614197  1
  F  F48  1  0.254239  0.558315  0.635300  1
  F  F49  1  0.434184  0.875442  0.626576  1
  F  F50  1  0.065036  0.122207  0.370442  1
  F  F51  1  0.559438  0.628031  0.882358  1
  F  F52  1  0.241007  0.437814  0.381191  1
  F  F53  1  0.418963  0.312409  0.866252  1
  F  F54  1  0.432249  0.807760  0.371410  1
  F  F55  1  0.757333  0.945742  0.878389  1
  F  F56  1  0.044716  0.179465  0.110557  1
  F  F57  1  0.253284  0.570887  0.139731  1
  F  F58  1  0.432455  0.875164  0.125387  1
  F  F59  1  0.573987  0.627513  0.382433  1
  F  F60  1  0.560951  0.118004  0.866260  1
  F  F61  1  0.429253  0.313904  0.375593  1
  F  F62  1  0.737745  0.424265  0.874594  1
  F  F63  1  0.756970  0.944689  0.382060  1
  F  F64  1  0.945835  0.820592  0.870738  1
  F  F65  1  0.544750  0.182342  0.608281  1
  F  F66  1  0.753848  0.565890  0.630051  1
  F  F67  1  0.932932  0.876152  0.623320  1
  F  F68  1  0.565443  0.123238  0.369113  1
  F  F69  1  0.742978  0.440820  0.377103  1
  F  F70  1  0.924820  0.308052  0.872731  1
  F  F71  1  0.933715  0.804869  0.372615  1
  F  F72  1  0.543926  0.179889  0.109851  1
  F  F73  1  0.753350  0.568987  0.140502  1
  F  F74  1  0.933671  0.875549  0.125789  1
  F  F75  1  0.929108  0.308886  0.376412  1
