# generated using pymatgen
data_Li3Mn3TeO8
_symmetry_space_group_name_H-M   'P 1'
_cell_length_a   10.50401962
_cell_length_b   10.51111452
_cell_length_c   14.78430003
_cell_angle_alpha   20.27341897
_cell_angle_beta   20.28127810
_cell_angle_gamma   34.93051677
_symmetry_Int_Tables_number   1
_chemical_formula_structural   Li3Mn3TeO8
_chemical_formula_sum   'Li3 Mn3 Te1 O8'
_cell_volume   169.79444686
_cell_formula_units_Z   1
loop_
 _symmetry_equiv_pos_site_id
 _symmetry_equiv_pos_as_xyz
  1  'x, y, z'
loop_
 _atom_site_type_symbol
 _atom_site_label
 _atom_site_symmetry_multiplicity
 _atom_site_fract_x
 _atom_site_fract_y
 _atom_site_fract_z
 _atom_site_occupancy
  Li  Li0  1  0.999998  0.499999  0.500001  1
  Li  Li1  1  0.499999  0.999997  0.500001  1
  Li  Li2  1  0.499998  0.499998  0.500001  1
  Mn  Mn3  1  0.000001  0.499999  0.000000  1
  Mn  Mn4  1  0.500000  0.000008  0.999997  1
  Mn  Mn5  1  0.500013  0.500003  0.999995  1
  Te  Te6  1  -0.000023  -0.000016  0.000023  1
  O  O7  1  0.999074  0.003454  0.265387  1
  O  O8  1  0.000029  0.560653  0.216520  1
  O  O9  1  0.560022  0.999520  0.217120  1
  O  O10  1  0.000931  0.996547  0.734610  1
  O  O11  1  0.439503  0.439176  0.337682  1
  O  O12  1  0.999973  0.439346  0.783477  1
  O  O13  1  0.439979  0.000482  0.782876  1
  O  O14  1  0.560503  0.560830  0.662308  1
