# generated using pymatgen
data_Cr3WO8
_symmetry_space_group_name_H-M   'P 1'
_cell_length_a   5.99019214
_cell_length_b   5.98998066
_cell_length_c   9.18750275
_cell_angle_alpha   89.99403172
_cell_angle_beta   90.00055905
_cell_angle_gamma   119.99994784
_symmetry_Int_Tables_number   1
_chemical_formula_structural   Cr3WO8
_chemical_formula_sum   'Cr6 W2 O16'
_cell_volume   285.49237415
_cell_formula_units_Z   2
loop_
 _symmetry_equiv_pos_site_id
 _symmetry_equiv_pos_as_xyz
  1  'x, y, z'
loop_
 _atom_site_type_symbol
 _atom_site_label
 _atom_site_symmetry_multiplicity
 _atom_site_fract_x
 _atom_site_fract_y
 _atom_site_fract_z
 _atom_site_occupancy
  Cr  Cr0  1  0.170391  0.829615  0.214066  1
  Cr  Cr1  1  0.170396  0.340787  0.214082  1
  Cr  Cr2  1  0.659212  0.829607  0.214077  1
  Cr  Cr3  1  0.340793  0.170386  0.714097  1
  Cr  Cr4  1  0.829618  0.659255  0.714016  1
  Cr  Cr5  1  0.829587  0.170380  0.714088  1
  W  W6  1  0.333338  0.666694  0.493702  1
  W  W7  1  0.666688  0.333385  0.993698  1
  O  O8  1  0.174573  0.825469  0.596388  1
  O  O9  1  0.048236  0.524102  0.342867  1
  O  O10  1  0.333349  0.666680  0.108645  1
  O  O11  1  0.999987  0.999979  0.295556  1
  O  O12  1  0.000016  0.000034  0.795548  1
  O  O13  1  0.174565  0.349143  0.596411  1
  O  O14  1  0.475887  0.951782  0.342836  1
  O  O15  1  0.475864  0.524090  0.342872  1
  O  O16  1  0.349136  0.174586  0.096395  1
  O  O17  1  0.650872  0.825468  0.596389  1
  O  O18  1  0.524122  0.475893  0.842835  1
  O  O19  1  0.524109  0.048212  0.842878  1
  O  O20  1  0.666630  0.333284  0.608635  1
  O  O21  1  0.825444  0.650897  0.096397  1
  O  O22  1  0.951752  0.475883  0.842838  1
  O  O23  1  0.825438  0.174587  0.096402  1
