# generated using pymatgen
data_Li3Mn2Fe(BO3)4
_symmetry_space_group_name_H-M   'P 1'
_cell_length_a   5.22890256
_cell_length_b   9.18246505
_cell_length_c   9.69860290
_cell_angle_alpha   90.00000000
_cell_angle_beta   94.65092287
_cell_angle_gamma   90.00000000
_symmetry_Int_Tables_number   1
_chemical_formula_structural   Li3Mn2Fe(BO3)4
_chemical_formula_sum   'Li6 Mn4 Fe2 B8 O24'
_cell_volume   464.13744675
_cell_formula_units_Z   2
loop_
 _symmetry_equiv_pos_site_id
 _symmetry_equiv_pos_as_xyz
  1  'x, y, z'
loop_
 _atom_site_type_symbol
 _atom_site_label
 _atom_site_symmetry_multiplicity
 _atom_site_fract_x
 _atom_site_fract_y
 _atom_site_fract_z
 _atom_site_occupancy
  Li  Li0  1  0.161517  0.976981  0.653824  1
  Li  Li1  1  0.199602  0.988762  0.117159  1
  Li  Li2  1  0.332893  0.482024  0.832932  1
  Li  Li3  1  0.699602  0.511238  0.617159  1
  Li  Li4  1  0.661517  0.523019  0.153824  1
  Li  Li5  1  0.832893  0.017976  0.332932  1
  Mn  Mn6  1  0.144017  0.307950  0.119514  1
  Mn  Mn7  1  0.352842  0.824912  0.375499  1
  Mn  Mn8  1  0.644017  0.192050  0.619514  1
  Mn  Mn9  1  0.852842  0.675088  0.875499  1
  Fe  Fe10  1  0.318548  0.486957  0.388835  1
  Fe  Fe11  1  0.818548  0.013043  0.888835  1
  B  B12  1  0.171776  0.308108  0.607450  1
  B  B13  1  0.156829  0.656462  0.139720  1
  B  B14  1  0.325670  0.818320  0.889011  1
  B  B15  1  0.341111  0.151885  0.367271  1
  B  B16  1  0.656829  0.843538  0.639720  1
  B  B17  1  0.671776  0.191892  0.107450  1
  B  B18  1  0.841111  0.348115  0.867271  1
  B  B19  1  0.825670  0.681680  0.389011  1
  O  O20  1  0.092345  0.350083  0.924592  1
  O  O21  1  0.090254  0.657397  0.402647  1
  O  O22  1  0.162648  0.937082  0.896539  1
  O  O23  1  0.199445  0.028730  0.342105  1
  O  O24  1  0.232724  0.680749  0.865914  1
  O  O25  1  0.227192  0.287383  0.324652  1
  O  O26  1  0.274881  0.172725  0.635731  1
  O  O27  1  0.266752  0.788320  0.180261  1
  O  O28  1  0.285542  0.525847  0.175491  1
  O  O29  1  0.339489  0.423337  0.584130  1
  O  O30  1  0.413467  0.850174  0.571283  1
  O  O31  1  0.413911  0.165995  0.102118  1
  O  O32  1  0.590254  0.842603  0.902647  1
  O  O33  1  0.592345  0.149918  0.424592  1
  O  O34  1  0.699445  0.471270  0.842105  1
  O  O35  1  0.727192  0.212617  0.824652  1
  O  O36  1  0.662648  0.562918  0.396539  1
  O  O37  1  0.732724  0.819251  0.365914  1
  O  O38  1  0.766752  0.711680  0.680261  1
  O  O39  1  0.785542  0.974153  0.675491  1
  O  O40  1  0.774881  0.327275  0.135731  1
  O  O41  1  0.839488  0.076663  0.084130  1
  O  O42  1  0.913911  0.334005  0.602118  1
  O  O43  1  0.913467  0.649826  0.071283  1
