# generated using pymatgen
data_LiV(PO4)2
_symmetry_space_group_name_H-M   'P 1'
_cell_length_a   4.87252724
_cell_length_b   16.90443673
_cell_length_c   6.97139258
_cell_angle_alpha   90.00000000
_cell_angle_beta   96.24552915
_cell_angle_gamma   90.00000000
_symmetry_Int_Tables_number   1
_chemical_formula_structural   LiV(PO4)2
_chemical_formula_sum   'Li4 V4 P8 O32'
_cell_volume   570.80691929
_cell_formula_units_Z   4
loop_
 _symmetry_equiv_pos_site_id
 _symmetry_equiv_pos_as_xyz
  1  'x, y, z'
loop_
 _atom_site_type_symbol
 _atom_site_label
 _atom_site_symmetry_multiplicity
 _atom_site_fract_x
 _atom_site_fract_y
 _atom_site_fract_z
 _atom_site_occupancy
  Li  Li0  1  0.206320  0.886595  0.496248  1
  Li  Li1  1  0.293680  0.386595  0.003752  1
  Li  Li2  1  0.706320  0.613405  0.996248  1
  Li  Li3  1  0.793680  0.113405  0.503752  1
  V  V4  1  0.201166  0.869916  0.008326  1
  V  V5  1  0.298834  0.369916  0.491674  1
  V  V6  1  0.701166  0.630084  0.508326  1
  V  V7  1  0.798834  0.130084  0.991674  1
  P  P8  1  0.154821  0.711806  0.264298  1
  P  P9  1  0.237056  0.536340  0.725304  1
  P  P10  1  0.262944  0.036340  0.774696  1
  P  P11  1  0.345179  0.211806  0.235702  1
  P  P12  1  0.654821  0.788194  0.764298  1
  P  P13  1  0.737056  0.963660  0.225304  1
  P  P14  1  0.762944  0.463660  0.274696  1
  P  P15  1  0.845179  0.288194  0.735702  1
  O  O16  1  0.036090  0.189024  0.169341  1
  O  O17  1  0.992855  0.694253  0.444734  1
  O  O18  1  0.030710  0.669842  0.088405  1
  O  O19  1  0.069324  0.434799  0.317288  1
  O  O20  1  0.102577  0.072432  0.937640  1
  O  O21  1  0.140507  0.060452  0.578572  1
  O  O22  1  0.156138  0.803903  0.233275  1
  O  O23  1  0.237281  0.444160  0.695854  1
  O  O24  1  0.262719  0.944160  0.804146  1
  O  O25  1  0.359493  0.560452  0.921428  1
  O  O26  1  0.397423  0.572432  0.562360  1
  O  O27  1  0.343862  0.303903  0.266725  1
  O  O28  1  0.430676  0.934799  0.182712  1
  O  O29  1  0.469290  0.169842  0.411595  1
  O  O30  1  0.507145  0.194253  0.055266  1
  O  O31  1  0.536090  0.310976  0.669341  1
  O  O32  1  0.463910  0.689024  0.330659  1
  O  O33  1  0.492855  0.805747  0.944734  1
  O  O34  1  0.530710  0.830158  0.588405  1
  O  O35  1  0.569324  0.065201  0.817288  1
  O  O36  1  0.656138  0.696097  0.733275  1
  O  O37  1  0.602577  0.427568  0.437640  1
  O  O38  1  0.640507  0.439548  0.078572  1
  O  O39  1  0.737281  0.055840  0.195854  1
  O  O40  1  0.762719  0.555840  0.304146  1
  O  O41  1  0.843862  0.196097  0.766725  1
  O  O42  1  0.859493  0.939548  0.421428  1
  O  O43  1  0.897423  0.927568  0.062360  1
  O  O44  1  0.930676  0.565201  0.682712  1
  O  O45  1  0.969290  0.330158  0.911595  1
  O  O46  1  0.007145  0.305747  0.555266  1
  O  O47  1  0.963910  0.810976  0.830659  1
