# generated using pymatgen
data_Li2VPCO7
_symmetry_space_group_name_H-M   'P 1'
_cell_length_a   8.39820624
_cell_length_b   5.08144358
_cell_length_c   6.45214737
_cell_angle_alpha   90.00000000
_cell_angle_beta   90.00000000
_cell_angle_gamma   84.94409490
_symmetry_Int_Tables_number   1
_chemical_formula_structural   Li2VPCO7
_chemical_formula_sum   'Li4 V2 P2 C2 O14'
_cell_volume   274.27414256
_cell_formula_units_Z   2
loop_
 _symmetry_equiv_pos_site_id
 _symmetry_equiv_pos_as_xyz
  1  'x, y, z'
loop_
 _atom_site_type_symbol
 _atom_site_label
 _atom_site_symmetry_multiplicity
 _atom_site_fract_x
 _atom_site_fract_y
 _atom_site_fract_z
 _atom_site_occupancy
  Li  Li0  1  0.097354  0.765180  0.245974  1
  Li  Li1  1  0.280510  0.253633  0.460084  1
  Li  Li2  1  0.719490  0.746367  0.960084  1
  Li  Li3  1  0.902646  0.234820  0.745974  1
  V  V4  1  0.323434  0.802274  0.758588  1
  V  V5  1  0.676566  0.197726  0.258588  1
  P  P6  1  0.418022  0.719045  0.251970  1
  P  P7  1  0.581978  0.280955  0.751970  1
  C  C8  1  0.039905  0.701093  0.748945  1
  C  C9  1  0.960095  0.298907  0.248945  1
  O  O10  1  0.074977  0.947787  0.753936  1
  O  O11  1  0.098337  0.372132  0.276427  1
  O  O12  1  0.165202  0.527975  0.718873  1
  O  O13  1  0.303368  0.780092  0.064791  1
  O  O14  1  0.312856  0.830421  0.437595  1
  O  O15  1  0.425474  0.146132  0.729622  1
  O  O16  1  0.456724  0.418229  0.281207  1
  O  O17  1  0.543276  0.581771  0.781207  1
  O  O18  1  0.574526  0.853868  0.229622  1
  O  O19  1  0.696632  0.219908  0.564791  1
  O  O20  1  0.687144  0.169579  0.937595  1
  O  O21  1  0.834798  0.472025  0.218873  1
  O  O22  1  0.901663  0.627868  0.776427  1
  O  O23  1  0.925023  0.052213  0.253936  1
