# generated using pymatgen
data_Li4Mn5P6WO24
_symmetry_space_group_name_H-M   'P 1'
_cell_length_a   8.72833637
_cell_length_b   9.09988995
_cell_length_c   9.06189774
_cell_angle_alpha   59.74637423
_cell_angle_beta   58.92750850
_cell_angle_gamma   58.70183629
_symmetry_Int_Tables_number   1
_chemical_formula_structural   Li4Mn5P6WO24
_chemical_formula_sum   'Li4 Mn5 P6 W1 O24'
_cell_volume   498.70339696
_cell_formula_units_Z   1
loop_
 _symmetry_equiv_pos_site_id
 _symmetry_equiv_pos_as_xyz
  1  'x, y, z'
loop_
 _atom_site_type_symbol
 _atom_site_label
 _atom_site_symmetry_multiplicity
 _atom_site_fract_x
 _atom_site_fract_y
 _atom_site_fract_z
 _atom_site_occupancy
  Li  Li0  1  0.253897  0.846527  0.645838  1
  Li  Li1  1  0.793151  0.153268  0.351655  1
  Li  Li2  1  0.786959  0.700508  0.150431  1
  Li  Li3  1  0.793270  0.359239  0.696182  1
  Mn  Mn4  1  0.025466  0.997197  0.998469  1
  Mn  Mn5  1  0.048066  0.648122  0.650740  1
  Mn  Mn6  1  0.492280  0.494776  0.499982  1
  Mn  Mn7  1  0.457686  0.845978  0.848822  1
  Mn  Mn8  1  0.973991  0.342193  0.339335  1
  P  P9  1  0.240524  0.256860  0.558332  1
  P  P10  1  0.244595  0.945830  0.251456  1
  P  P11  1  0.238620  0.561933  0.946695  1
  P  P12  1  0.747267  0.445805  0.054023  1
  P  P13  1  0.763154  0.050254  0.749576  1
  P  P14  1  0.724241  0.755846  0.452386  1
  W  W15  1  0.552515  0.153381  0.147417  1
  O  O16  1  0.053447  0.092603  0.318184  1
  O  O17  1  0.049712  0.536637  0.090446  1
  O  O18  1  0.052109  0.333001  0.526723  1
  O  O19  1  0.229053  0.090994  0.735196  1
  O  O20  1  0.412798  0.196439  0.391155  1
  O  O21  1  0.277000  0.399272  0.568848  1
  O  O22  1  0.234400  0.920097  0.101217  1
  O  O23  1  0.280516  0.765477  0.411088  1
  O  O24  1  0.568027  0.585886  0.013125  1
  O  O25  1  0.282040  0.569035  0.754650  1
  O  O26  1  0.766847  0.241923  0.095191  1
  O  O27  1  0.602155  0.990424  0.812078  1
  O  O28  1  0.412783  0.010294  0.176534  1
  O  O29  1  0.225059  0.748782  0.924204  1
  O  O30  1  0.728123  0.431416  0.244111  1
  O  O31  1  0.409234  0.398608  0.007856  1
  O  O32  1  0.736589  0.240817  0.595371  1
  O  O33  1  0.758194  0.096345  0.903584  1
  O  O34  1  0.729083  0.595574  0.425665  1
  O  O35  1  0.528448  0.822541  0.590100  1
  O  O36  1  0.749015  0.905740  0.250500  1
  O  O37  1  0.888886  0.715820  0.497840  1
  O  O38  1  0.929815  0.472072  0.901845  1
  O  O39  1  0.960988  0.905485  0.700149  1
