# generated using pymatgen
data_Li3Fe2(NiO4)2
_symmetry_space_group_name_H-M   'P 1'
_cell_length_a   5.89209841
_cell_length_b   5.95776815
_cell_length_c   5.85475747
_cell_angle_alpha   119.40892835
_cell_angle_beta   119.64422274
_cell_angle_gamma   91.27614639
_symmetry_Int_Tables_number   1
_chemical_formula_structural   Li3Fe2(NiO4)2
_chemical_formula_sum   'Li3 Fe2 Ni2 O8'
_cell_volume   145.75174398
_cell_formula_units_Z   1
loop_
 _symmetry_equiv_pos_site_id
 _symmetry_equiv_pos_as_xyz
  1  'x, y, z'
loop_
 _atom_site_type_symbol
 _atom_site_label
 _atom_site_symmetry_multiplicity
 _atom_site_fract_x
 _atom_site_fract_y
 _atom_site_fract_z
 _atom_site_occupancy
  Li  Li0  1  0.000000  0.500000  0.500000  1
  Li  Li1  1  0.500000  0.500000  0.000000  1
  Li  Li2  1  0.500000  0.000000  0.000000  1
  Fe  Fe3  1  0.000000  0.000000  0.500000  1
  Fe  Fe4  1  0.000000  0.000000  0.000000  1
  Ni  Ni5  1  0.000000  0.500000  0.000000  1
  Ni  Ni6  1  0.500000  0.000000  0.500000  1
  O  O7  1  0.236623  0.788870  0.499799  1
  O  O8  1  0.219664  0.229606  0.493569  1
  O  O9  1  0.256157  0.781434  0.040933  1
  O  O10  1  0.223009  0.226878  0.957270  1
  O  O11  1  0.776991  0.773122  0.042730  1
  O  O12  1  0.743843  0.218566  0.959067  1
  O  O13  1  0.780336  0.770394  0.506431  1
  O  O14  1  0.763377  0.211130  0.500201  1
