# generated using pymatgen
data_V3P6WO24
_symmetry_space_group_name_H-M   'P 1'
_cell_length_a   8.80208078
_cell_length_b   8.80208020
_cell_length_c   8.80208053
_cell_angle_alpha   58.60262925
_cell_angle_beta   58.60262930
_cell_angle_gamma   58.60262951
_symmetry_Int_Tables_number   1
_chemical_formula_structural   V3P6WO24
_chemical_formula_sum   'V3 P6 W1 O24'
_cell_volume   466.80971969
_cell_formula_units_Z   1
loop_
 _symmetry_equiv_pos_site_id
 _symmetry_equiv_pos_as_xyz
  1  'x, y, z'
loop_
 _atom_site_type_symbol
 _atom_site_label
 _atom_site_symmetry_multiplicity
 _atom_site_fract_x
 _atom_site_fract_y
 _atom_site_fract_z
 _atom_site_occupancy
  V  V0  1  0.142105  0.142105  0.142105  1
  V  V1  1  0.358951  0.358951  0.358951  1
  V  V2  1  0.642389  0.642389  0.642389  1
  P  P3  1  0.035874  0.749055  0.459317  1
  P  P4  1  0.459317  0.035874  0.749055  1
  P  P5  1  0.749055  0.459317  0.035874  1
  P  P6  1  0.257626  0.527691  0.967258  1
  P  P7  1  0.527691  0.967258  0.257626  1
  P  P8  1  0.967258  0.257626  0.527691  1
  W  W9  1  0.858781  0.858781  0.858781  1
  O  O10  1  0.139194  0.276906  0.509044  1
  O  O11  1  0.276906  0.509044  0.139194  1
  O  O12  1  0.061696  0.924758  0.285684  1
  O  O13  1  0.509044  0.139194  0.276906  1
  O  O14  1  0.215573  0.575657  0.441126  1
  O  O15  1  0.001179  0.780697  0.638362  1
  O  O16  1  0.285684  0.061696  0.924758  1
  O  O17  1  0.441126  0.215573  0.575657  1
  O  O18  1  0.575657  0.441126  0.215573  1
  O  O19  1  0.219135  0.363978  0.993896  1
  O  O20  1  0.077007  0.712807  0.936835  1
  O  O21  1  0.363978  0.993896  0.219135  1
  O  O22  1  0.638362  0.001179  0.780697  1
  O  O23  1  0.924758  0.285684  0.061696  1
  O  O24  1  0.780697  0.638362  0.001179  1
  O  O25  1  0.423287  0.563381  0.784143  1
  O  O26  1  0.563381  0.784143  0.423287  1
  O  O27  1  0.712807  0.936835  0.077007  1
  O  O28  1  0.993896  0.219135  0.363978  1
  O  O29  1  0.784143  0.423287  0.563381  1
  O  O30  1  0.493385  0.862303  0.720920  1
  O  O31  1  0.936835  0.077007  0.712807  1
  O  O32  1  0.720920  0.493385  0.862303  1
  O  O33  1  0.862303  0.720920  0.493385  1
