# generated using pymatgen
data_Li2Ni4P4O15
_symmetry_space_group_name_H-M   'P 1'
_cell_length_a   8.58090032
_cell_length_b   8.58090111
_cell_length_c   17.93278862
_cell_angle_alpha   82.89800106
_cell_angle_beta   97.10199953
_cell_angle_gamma   73.34963098
_symmetry_Int_Tables_number   1
_chemical_formula_structural   Li2Ni4P4O15
_chemical_formula_sum   'Li8 Ni16 P16 O60'
_cell_volume   1237.66020636
_cell_formula_units_Z   4
loop_
 _symmetry_equiv_pos_site_id
 _symmetry_equiv_pos_as_xyz
  1  'x, y, z'
loop_
 _atom_site_type_symbol
 _atom_site_label
 _atom_site_symmetry_multiplicity
 _atom_site_fract_x
 _atom_site_fract_y
 _atom_site_fract_z
 _atom_site_occupancy
  Li  Li0  1  0.294970  0.539229  0.046845  1
  Li  Li1  1  0.995951  0.527686  0.755431  1
  Li  Li2  1  0.460771  0.705030  0.546845  1
  Li  Li3  1  0.705030  0.460771  0.953155  1
  Li  Li4  1  0.004049  0.472314  0.244569  1
  Li  Li5  1  0.539229  0.294970  0.453155  1
  Li  Li6  1  0.527686  0.995951  0.744569  1
  Li  Li7  1  0.472314  0.004049  0.255431  1
  Ni  Ni8  1  0.959040  0.146255  0.431028  1
  Ni  Ni9  1  0.040960  0.853745  0.568972  1
  Ni  Ni10  1  0.736006  0.904915  0.436740  1
  Ni  Ni11  1  0.048761  0.048761  0.250000  1
  Ni  Ni12  1  0.853745  0.040960  0.931028  1
  Ni  Ni13  1  0.476090  0.476090  0.750000  1
  Ni  Ni14  1  0.095085  0.263994  0.936740  1
  Ni  Ni15  1  0.523910  0.523910  0.250000  1
  Ni  Ni16  1  0.823572  0.823572  0.250000  1
  Ni  Ni17  1  0.500000  0.000000  0.000000  1
  Ni  Ni18  1  0.904915  0.736006  0.063260  1
  Ni  Ni19  1  0.263994  0.095085  0.563260  1
  Ni  Ni20  1  0.146255  0.959040  0.068972  1
  Ni  Ni21  1  0.000000  0.500000  0.500000  1
  Ni  Ni22  1  0.176428  0.176428  0.750000  1
  Ni  Ni23  1  0.951239  0.951239  0.750000  1
  P  P24  1  0.221759  0.454265  0.624076  1
  P  P25  1  0.019200  0.680137  0.899474  1
  P  P26  1  0.710802  0.154838  0.321104  1
  P  P27  1  0.778241  0.545735  0.375924  1
  P  P28  1  0.680137  0.019200  0.600526  1
  P  P29  1  0.845162  0.289198  0.821104  1
  P  P30  1  0.319863  0.980800  0.399474  1
  P  P31  1  0.454265  0.221759  0.875924  1
  P  P32  1  0.106022  0.769093  0.401286  1
  P  P33  1  0.230907  0.893978  0.901286  1
  P  P34  1  0.769093  0.106022  0.098714  1
  P  P35  1  0.545735  0.778241  0.124076  1
  P  P36  1  0.154838  0.710802  0.178896  1
  P  P37  1  0.980800  0.319863  0.100526  1
  P  P38  1  0.893978  0.230907  0.598714  1
  P  P39  1  0.289198  0.845162  0.678896  1
  O  O40  1  0.614709  0.091165  0.920799  1
  O  O41  1  0.588771  0.138493  0.072335  1
  O  O42  1  0.665752  0.783686  0.065762  1
  O  O43  1  0.405956  0.160946  0.801524  1
  O  O44  1  0.783686  0.665752  0.434238  1
  O  O45  1  0.281061  0.570446  0.233857  1
  O  O46  1  0.498034  0.936084  0.433363  1
  O  O47  1  0.472444  0.395873  0.858331  1
  O  O48  1  0.604127  0.527556  0.358331  1
  O  O49  1  0.216314  0.334248  0.565762  1
  O  O50  1  0.570446  0.281061  0.266143  1
  O  O51  1  0.839054  0.594044  0.301524  1
  O  O52  1  0.304734  0.021316  0.684058  1
  O  O53  1  0.594044  0.839054  0.198476  1
  O  O54  1  0.898753  0.790722  0.942864  1
  O  O55  1  0.861507  0.411229  0.572335  1
  O  O56  1  0.063916  0.501966  0.933363  1
  O  O57  1  0.160946  0.405956  0.698476  1
  O  O58  1  0.702266  0.161916  0.408967  1
  O  O59  1  0.282712  0.802645  0.419847  1
  O  O60  1  0.717288  0.197355  0.580153  1
  O  O61  1  0.168761  0.885973  0.184778  1
  O  O62  1  0.167763  0.958989  0.816500  1
  O  O63  1  0.091165  0.614709  0.579201  1
  O  O64  1  0.161916  0.702266  0.091033  1
  O  O65  1  0.978684  0.695266  0.184058  1
  O  O66  1  0.006721  0.115167  0.550969  1
  O  O67  1  0.334248  0.216314  0.934238  1
  O  O68  1  0.197355  0.717288  0.919847  1
  O  O69  1  0.034754  0.277696  0.187049  1
  O  O70  1  0.115167  0.006721  0.949031  1
  O  O71  1  0.297734  0.838084  0.591033  1
  O  O72  1  0.802645  0.282712  0.080153  1
  O  O73  1  0.411229  0.861507  0.927665  1
  O  O74  1  0.695266  0.978684  0.315942  1
  O  O75  1  0.021316  0.304734  0.815942  1
  O  O76  1  0.501966  0.063916  0.566637  1
  O  O77  1  0.831239  0.114027  0.815222  1
  O  O78  1  0.908835  0.385291  0.420799  1
  O  O79  1  0.936084  0.498034  0.066637  1
  O  O80  1  0.101247  0.209278  0.057136  1
  O  O81  1  0.790722  0.898753  0.557136  1
  O  O82  1  0.395873  0.472444  0.641669  1
  O  O83  1  0.385291  0.908835  0.079201  1
  O  O84  1  0.965246  0.722304  0.812951  1
  O  O85  1  0.277696  0.034754  0.312951  1
  O  O86  1  0.041011  0.832237  0.316500  1
  O  O87  1  0.527556  0.604127  0.141669  1
  O  O88  1  0.832237  0.041011  0.183500  1
  O  O89  1  0.993279  0.884833  0.449031  1
  O  O90  1  0.722304  0.965246  0.687049  1
  O  O91  1  0.718939  0.429554  0.766143  1
  O  O92  1  0.429554  0.718939  0.733857  1
  O  O93  1  0.884833  0.993279  0.050969  1
  O  O94  1  0.838084  0.297734  0.908967  1
  O  O95  1  0.958989  0.167763  0.683500  1
  O  O96  1  0.209278  0.101247  0.442864  1
  O  O97  1  0.114027  0.831239  0.684778  1
  O  O98  1  0.885973  0.168761  0.315222  1
  O  O99  1  0.138493  0.588771  0.427665  1
