# generated using pymatgen
data_LiFeCuS2
_symmetry_space_group_name_H-M   'P 1'
_cell_length_a   3.80709022
_cell_length_b   3.80782906
_cell_length_c   6.25795814
_cell_angle_alpha   90.04713623
_cell_angle_beta   89.89668024
_cell_angle_gamma   119.92779341
_symmetry_Int_Tables_number   1
_chemical_formula_structural   LiFeCuS2
_chemical_formula_sum   'Li1 Fe1 Cu1 S2'
_cell_volume   78.62283932
_cell_formula_units_Z   1
loop_
 _symmetry_equiv_pos_site_id
 _symmetry_equiv_pos_as_xyz
  1  'x, y, z'
loop_
 _atom_site_type_symbol
 _atom_site_label
 _atom_site_symmetry_multiplicity
 _atom_site_fract_x
 _atom_site_fract_y
 _atom_site_fract_z
 _atom_site_occupancy
  Li  Li0  1  0.002150  0.001054  0.012363  1
  Fe  Fe1  1  0.333299  0.666965  0.622400  1
  Cu  Cu2  1  0.665735  0.332552  0.362714  1
  S  S3  1  0.332491  0.666217  0.247168  1
  S  S4  1  0.666325  0.333212  0.755355  1
