# generated using pymatgen
data_MnFe3(PO4)4
_symmetry_space_group_name_H-M   'P 1'
_cell_length_a   4.89737466
_cell_length_b   9.91878553
_cell_length_c   11.93836404
_cell_angle_alpha   90.00000000
_cell_angle_beta   90.00000000
_cell_angle_gamma   90.00000000
_symmetry_Int_Tables_number   1
_chemical_formula_structural   MnFe3(PO4)4
_chemical_formula_sum   'Mn2 Fe6 P8 O32'
_cell_volume   579.91807801
_cell_formula_units_Z   2
loop_
 _symmetry_equiv_pos_site_id
 _symmetry_equiv_pos_as_xyz
  1  'x, y, z'
loop_
 _atom_site_type_symbol
 _atom_site_label
 _atom_site_symmetry_multiplicity
 _atom_site_fract_x
 _atom_site_fract_y
 _atom_site_fract_z
 _atom_site_occupancy
  Mn  Mn0  1  0.062706  0.717734  0.875000  1
  Mn  Mn1  1  0.437294  0.217734  0.375000  1
  Fe  Fe2  1  0.030834  0.727174  0.375000  1
  Fe  Fe3  1  0.469166  0.227174  0.875000  1
  Fe  Fe4  1  0.534587  0.774592  0.626135  1
  Fe  Fe5  1  0.534587  0.774592  0.123865  1
  Fe  Fe6  1  0.965413  0.274592  0.126135  1
  Fe  Fe7  1  0.965413  0.274592  0.623865  1
  P  P8  1  0.083049  0.597128  0.623315  1
  P  P9  1  0.083049  0.597128  0.126685  1
  P  P10  1  0.416951  0.097128  0.626685  1
  P  P11  1  0.416951  0.097128  0.123315  1
  P  P12  1  0.581267  0.899396  0.875000  1
  P  P13  1  0.579912  0.904294  0.375000  1
  P  P14  1  0.918733  0.399396  0.375000  1
  P  P15  1  0.920088  0.404294  0.875000  1
  O  O16  1  0.153279  0.446856  0.625577  1
  O  O17  1  0.153279  0.446856  0.124423  1
  O  O18  1  0.229159  0.672349  0.026574  1
  O  O19  1  0.228164  0.671949  0.226550  1
  O  O20  1  0.228164  0.671949  0.523450  1
  O  O21  1  0.229159  0.672349  0.723426  1
  O  O22  1  0.232541  0.379836  0.375000  1
  O  O23  1  0.229115  0.383092  0.875000  1
  O  O24  1  0.270885  0.883092  0.375000  1
  O  O25  1  0.267459  0.879836  0.875000  1
  O  O26  1  0.271836  0.171949  0.023450  1
  O  O27  1  0.270841  0.172349  0.223426  1
  O  O28  1  0.271836  0.171949  0.726550  1
  O  O29  1  0.270841  0.172349  0.526574  1
  O  O30  1  0.346721  0.946856  0.125577  1
  O  O31  1  0.346721  0.946856  0.624423  1
  O  O32  1  0.648336  0.055961  0.375000  1
  O  O33  1  0.640212  0.051285  0.875000  1
  O  O34  1  0.725893  0.830962  0.475391  1
  O  O35  1  0.718991  0.827544  0.773053  1
  O  O36  1  0.725893  0.830962  0.274609  1
  O  O37  1  0.718991  0.827544  0.976947  1
  O  O38  1  0.725379  0.119233  0.626413  1
  O  O39  1  0.725379  0.119233  0.123587  1
  O  O40  1  0.774621  0.619233  0.126413  1
  O  O41  1  0.774621  0.619233  0.623587  1
  O  O42  1  0.781009  0.327544  0.476947  1
  O  O43  1  0.774107  0.330962  0.774609  1
  O  O44  1  0.774107  0.330962  0.975391  1
  O  O45  1  0.781009  0.327544  0.273053  1
  O  O46  1  0.859788  0.551285  0.375000  1
  O  O47  1  0.851664  0.555961  0.875000  1
