# generated using pymatgen
data_Li2VF6
_symmetry_space_group_name_H-M   'P 1'
_cell_length_a   5.22915243
_cell_length_b   8.74252181
_cell_length_c   5.23077662
_cell_angle_alpha   90.00000000
_cell_angle_beta   110.99678681
_cell_angle_gamma   90.00000000
_symmetry_Int_Tables_number   1
_chemical_formula_structural   Li2VF6
_chemical_formula_sum   'Li4 V2 F12'
_cell_volume   223.25196283
_cell_formula_units_Z   2
loop_
 _symmetry_equiv_pos_site_id
 _symmetry_equiv_pos_as_xyz
  1  'x, y, z'
loop_
 _atom_site_type_symbol
 _atom_site_label
 _atom_site_symmetry_multiplicity
 _atom_site_fract_x
 _atom_site_fract_y
 _atom_site_fract_z
 _atom_site_occupancy
  Li  Li0  1  0.050971  0.330856  0.371115  1
  Li  Li1  1  0.479920  0.660560  0.490154  1
  Li  Li2  1  0.520080  0.160560  0.009846  1
  Li  Li3  1  0.949029  0.830856  0.128885  1
  V  V4  1  0.507307  0.002506  0.494444  1
  V  V5  1  0.492693  0.502506  0.005556  1
  F  F6  1  0.258357  0.843132  0.501708  1
  F  F7  1  0.292671  0.489770  0.620395  1
  F  F8  1  0.311446  0.156268  0.594817  1
  F  F9  1  0.258634  0.645542  0.082134  1
  F  F10  1  0.283325  0.019614  0.125635  1
  F  F11  1  0.290329  0.346322  0.081163  1
  F  F12  1  0.688554  0.656268  0.905183  1
  F  F13  1  0.707329  0.989770  0.879605  1
  F  F14  1  0.741643  0.343132  0.998292  1
  F  F15  1  0.709671  0.846322  0.418837  1
  F  F16  1  0.716675  0.519614  0.374365  1
  F  F17  1  0.741366  0.145542  0.417866  1
