# generated using pymatgen
data_Li3Ti(BO3)2
_symmetry_space_group_name_H-M   'P 1'
_cell_length_a   5.19133389
_cell_length_b   8.94081267
_cell_length_c   9.96976847
_cell_angle_alpha   90.00000000
_cell_angle_beta   90.70826707
_cell_angle_gamma   90.00000000
_symmetry_Int_Tables_number   1
_chemical_formula_structural   Li3Ti(BO3)2
_chemical_formula_sum   'Li12 Ti4 B8 O24'
_cell_volume   462.70889425
_cell_formula_units_Z   4
loop_
 _symmetry_equiv_pos_site_id
 _symmetry_equiv_pos_as_xyz
  1  'x, y, z'
loop_
 _atom_site_type_symbol
 _atom_site_label
 _atom_site_symmetry_multiplicity
 _atom_site_fract_x
 _atom_site_fract_y
 _atom_site_fract_z
 _atom_site_occupancy
  Li  Li0  1  0.158114  0.974992  0.670021  1
  Li  Li1  1  0.170538  0.656887  0.618549  1
  Li  Li2  1  0.176264  0.985821  0.098778  1
  Li  Li3  1  0.329462  0.156887  0.881451  1
  Li  Li4  1  0.323736  0.485821  0.401222  1
  Li  Li5  1  0.341886  0.474992  0.829979  1
  Li  Li6  1  0.658114  0.525008  0.170021  1
  Li  Li7  1  0.676264  0.514179  0.598778  1
  Li  Li8  1  0.670538  0.843113  0.118549  1
  Li  Li9  1  0.823736  0.014179  0.901222  1
  Li  Li10  1  0.829462  0.343113  0.381451  1
  Li  Li11  1  0.841886  0.025008  0.329979  1
  Ti  Ti12  1  0.152725  0.332211  0.122931  1
  Ti  Ti13  1  0.347275  0.832211  0.377069  1
  Ti  Ti14  1  0.652725  0.167789  0.622931  1
  Ti  Ti15  1  0.847275  0.667789  0.877069  1
  B  B16  1  0.164247  0.324637  0.620857  1
  B  B17  1  0.164730  0.667445  0.129642  1
  B  B18  1  0.335753  0.824637  0.879143  1
  B  B19  1  0.335270  0.167445  0.370358  1
  B  B20  1  0.664730  0.832555  0.629642  1
  B  B21  1  0.664247  0.175363  0.120857  1
  B  B22  1  0.835270  0.332555  0.870358  1
  B  B23  1  0.835753  0.675363  0.379143  1
  O  O24  1  0.089860  0.327364  0.914729  1
  O  O25  1  0.099288  0.662144  0.406109  1
  O  O26  1  0.177570  0.948845  0.879634  1
  O  O27  1  0.209548  0.028449  0.363947  1
  O  O28  1  0.199119  0.293297  0.331390  1
  O  O29  1  0.231028  0.683405  0.851427  1
  O  O30  1  0.268972  0.183405  0.648573  1
  O  O31  1  0.300881  0.793297  0.168610  1
  O  O32  1  0.290452  0.528449  0.136053  1
  O  O33  1  0.322430  0.448845  0.620366  1
  O  O34  1  0.410140  0.827364  0.585271  1
  O  O35  1  0.400712  0.162144  0.093891  1
  O  O36  1  0.599288  0.837856  0.906109  1
  O  O37  1  0.589860  0.172636  0.414729  1
  O  O38  1  0.677570  0.551155  0.379634  1
  O  O39  1  0.709548  0.471551  0.863947  1
  O  O40  1  0.699119  0.206703  0.831390  1
  O  O41  1  0.731028  0.816595  0.351427  1
  O  O42  1  0.768972  0.316595  0.148573  1
  O  O43  1  0.800881  0.706703  0.668610  1
  O  O44  1  0.790452  0.971551  0.636053  1
  O  O45  1  0.822430  0.051155  0.120366  1
  O  O46  1  0.900712  0.337856  0.593891  1
  O  O47  1  0.910140  0.672636  0.085271  1
