# generated using pymatgen
data_VF5
_symmetry_space_group_name_H-M   'P 1'
_cell_length_a   6.56777259
_cell_length_b   7.49960595
_cell_length_c   14.89730130
_cell_angle_alpha   89.99842380
_cell_angle_beta   95.90072740
_cell_angle_gamma   90.00121865
_symmetry_Int_Tables_number   1
_chemical_formula_structural   VF5
_chemical_formula_sum   'V8 F40'
_cell_volume   729.88918995
_cell_formula_units_Z   8
loop_
 _symmetry_equiv_pos_site_id
 _symmetry_equiv_pos_as_xyz
  1  'x, y, z'
loop_
 _atom_site_type_symbol
 _atom_site_label
 _atom_site_symmetry_multiplicity
 _atom_site_fract_x
 _atom_site_fract_y
 _atom_site_fract_z
 _atom_site_occupancy
  V  V0  1  0.170446  0.312668  0.623813  1
  V  V1  1  0.170423  0.187285  0.123796  1
  V  V2  1  0.499133  0.373378  0.846215  1
  V  V3  1  0.500857  0.873360  0.653799  1
  V  V4  1  0.499143  0.126640  0.346201  1
  V  V5  1  0.500867  0.626622  0.153785  1
  V  V6  1  0.829577  0.812715  0.876204  1
  V  V7  1  0.829554  0.687332  0.376187  1
  F  F8  1  0.001088  0.989892  0.890816  1
  F  F9  1  0.043377  0.194025  0.703930  1
  F  F10  1  0.001074  0.510130  0.390810  1
  F  F11  1  0.064195  0.185569  0.532772  1
  F  F12  1  0.043324  0.305970  0.203938  1
  F  F13  1  0.064182  0.314417  0.032775  1
  F  F14  1  0.298436  0.474415  0.898058  1
  F  F15  1  0.322107  0.834218  0.732200  1
  F  F16  1  0.315102  0.430467  0.729910  1
  F  F17  1  0.298431  0.025595  0.398080  1
  F  F18  1  0.384443  0.163574  0.839596  1
  F  F19  1  0.339954  0.819388  0.557420  1
  F  F20  1  0.359467  0.410067  0.562587  1
  F  F21  1  0.322081  0.665738  0.232215  1
  F  F22  1  0.315070  0.069545  0.229932  1
  F  F23  1  0.387628  0.117768  0.647946  1
  F  F24  1  0.384392  0.336457  0.339599  1
  F  F25  1  0.339945  0.680575  0.057423  1
  F  F26  1  0.359444  0.089941  0.062613  1
  F  F27  1  0.387609  0.382212  0.147949  1
  F  F28  1  0.612391  0.617788  0.852051  1
  F  F29  1  0.640556  0.910059  0.937387  1
  F  F30  1  0.660055  0.319425  0.942577  1
  F  F31  1  0.615608  0.663543  0.660401  1
  F  F32  1  0.612372  0.882232  0.352054  1
  F  F33  1  0.684930  0.930455  0.770068  1
  F  F34  1  0.677919  0.334262  0.767785  1
  F  F35  1  0.640533  0.589933  0.437413  1
  F  F36  1  0.660046  0.180612  0.442580  1
  F  F37  1  0.615557  0.836426  0.160404  1
  F  F38  1  0.701569  0.974405  0.601920  1
  F  F39  1  0.684898  0.569533  0.270090  1
  F  F40  1  0.677893  0.165782  0.267800  1
  F  F41  1  0.701564  0.525585  0.101942  1
  F  F42  1  0.935818  0.685583  0.967225  1
  F  F43  1  0.956676  0.694030  0.796062  1
  F  F44  1  0.935805  0.814430  0.467228  1
  F  F45  1  0.998926  0.489870  0.609190  1
  F  F46  1  0.956623  0.805975  0.296070  1
  F  F47  1  0.998912  0.010108  0.109184  1
