# generated using pymatgen
data_LiMn2O3F
_symmetry_space_group_name_H-M   'P 1'
_cell_length_a   5.85779996
_cell_length_b   6.13808613
_cell_length_c   8.75917336
_cell_angle_alpha   90.00000000
_cell_angle_beta   90.00000000
_cell_angle_gamma   89.48763842
_symmetry_Int_Tables_number   1
_chemical_formula_structural   LiMn2O3F
_chemical_formula_sum   'Li4 Mn8 O12 F4'
_cell_volume   314.92944825
_cell_formula_units_Z   4
loop_
 _symmetry_equiv_pos_site_id
 _symmetry_equiv_pos_as_xyz
  1  'x, y, z'
loop_
 _atom_site_type_symbol
 _atom_site_label
 _atom_site_symmetry_multiplicity
 _atom_site_fract_x
 _atom_site_fract_y
 _atom_site_fract_z
 _atom_site_occupancy
  Li  Li0  1  0.970222  0.999459  0.020519  1
  Li  Li1  1  0.470222  0.999459  0.229481  1
  Li  Li2  1  0.529778  0.500541  0.520519  1
  Li  Li3  1  0.029778  0.500541  0.729481  1
  Mn  Mn4  1  0.752779  0.499437  0.132809  1
  Mn  Mn5  1  0.747221  0.000563  0.632809  1
  Mn  Mn6  1  0.252779  0.499437  0.117191  1
  Mn  Mn7  1  0.247221  0.000563  0.617191  1
  Mn  Mn8  1  0.000000  0.250000  0.375000  1
  Mn  Mn9  1  0.500000  0.250000  0.875000  1
  Mn  Mn10  1  0.000000  0.750000  0.375000  1
  Mn  Mn11  1  0.500000  0.750000  0.875000  1
  O  O12  1  0.506023  0.285235  0.100312  1
  O  O13  1  0.003066  0.713689  0.149580  1
  O  O14  1  0.503066  0.713689  0.100420  1
  O  O15  1  0.799340  0.501919  0.383082  1
  O  O16  1  0.993977  0.214765  0.600312  1
  O  O17  1  0.006023  0.285235  0.149688  1
  O  O18  1  0.493977  0.214765  0.649688  1
  O  O19  1  0.200660  0.998081  0.366918  1
  O  O20  1  0.496934  0.786311  0.649580  1
  O  O21  1  0.299340  0.501919  0.866918  1
  O  O22  1  0.700660  0.998081  0.883082  1
  O  O23  1  0.996934  0.786311  0.600420  1
  F  F24  1  0.719736  0.003484  0.370716  1
  F  F25  1  0.280264  0.496517  0.379284  1
  F  F26  1  0.219736  0.003484  0.879284  1
  F  F27  1  0.780264  0.496517  0.870716  1
