# generated using pymatgen
data_Fe5Co3O16
_symmetry_space_group_name_H-M   'P 1'
_cell_length_a   5.68952768
_cell_length_b   5.67684336
_cell_length_c   9.01590122
_cell_angle_alpha   90.26341061
_cell_angle_beta   90.61640755
_cell_angle_gamma   119.85583417
_symmetry_Int_Tables_number   1
_chemical_formula_structural   Fe5Co3O16
_chemical_formula_sum   'Fe5 Co3 O16'
_cell_volume   252.52142874
_cell_formula_units_Z   1
loop_
 _symmetry_equiv_pos_site_id
 _symmetry_equiv_pos_as_xyz
  1  'x, y, z'
loop_
 _atom_site_type_symbol
 _atom_site_label
 _atom_site_symmetry_multiplicity
 _atom_site_fract_x
 _atom_site_fract_y
 _atom_site_fract_z
 _atom_site_occupancy
  Fe  Fe0  1  0.325678  0.660768  0.493639  1
  Fe  Fe1  1  0.667705  0.833118  0.214151  1
  Fe  Fe2  1  0.660515  0.326227  0.995143  1
  Fe  Fe3  1  0.834436  0.668252  0.712138  1
  Fe  Fe4  1  0.833965  0.167796  0.712538  1
  Co  Co5  1  0.168771  0.832952  0.211001  1
  Co  Co6  1  0.169283  0.335856  0.211130  1
  Co  Co7  1  0.335958  0.167713  0.711233  1
  O  O8  1  0.161182  0.842730  0.602699  1
  O  O9  1  0.039894  0.520666  0.325936  1
  O  O10  1  0.329726  0.663694  0.102660  1
  O  O11  1  0.007851  0.004677  0.318697  1
  O  O12  1  0.006665  0.003800  0.819626  1
  O  O13  1  0.160909  0.319872  0.606387  1
  O  O14  1  0.476242  0.963490  0.331740  1
  O  O15  1  0.476808  0.512825  0.331842  1
  O  O16  1  0.317611  0.158747  0.105599  1
  O  O17  1  0.676920  0.842362  0.604010  1
  O  O18  1  0.517990  0.480729  0.831038  1
  O  O19  1  0.518096  0.039538  0.829178  1
  O  O20  1  0.664482  0.332770  0.602901  1
  O  O21  1  0.842287  0.676372  0.104525  1
  O  O22  1  0.964081  0.480704  0.833061  1
  O  O23  1  0.842946  0.164541  0.104847  1
