# generated using pymatgen
data_Li2FeSiO4
_symmetry_space_group_name_H-M   'P 1'
_cell_length_a   11.00589850
_cell_length_b   5.15956091
_cell_length_c   6.28792312
_cell_angle_alpha   89.93443612
_cell_angle_beta   89.99984369
_cell_angle_gamma   90.02757895
_symmetry_Int_Tables_number   1
_chemical_formula_structural   Li2FeSiO4
_chemical_formula_sum   'Li8 Fe4 Si4 O16'
_cell_volume   357.06323486
_cell_formula_units_Z   4
loop_
 _symmetry_equiv_pos_site_id
 _symmetry_equiv_pos_as_xyz
  1  'x, y, z'
loop_
 _atom_site_type_symbol
 _atom_site_label
 _atom_site_symmetry_multiplicity
 _atom_site_fract_x
 _atom_site_fract_y
 _atom_site_fract_z
 _atom_site_occupancy
  Li  Li0  1  0.073840  0.787210  0.867983  1
  Li  Li1  1  0.161199  0.188606  0.119678  1
  Li  Li2  1  0.338705  0.688515  0.619645  1
  Li  Li3  1  0.426370  0.287429  0.368368  1
  Li  Li4  1  0.573855  0.712282  0.867898  1
  Li  Li5  1  0.661245  0.311503  0.119703  1
  Li  Li6  1  0.838574  0.811551  0.619542  1
  Li  Li7  1  0.926107  0.212792  0.368357  1
  Fe  Fe8  1  0.166624  0.189650  0.618311  1
  Fe  Fe9  1  0.333349  0.689713  0.118423  1
  Fe  Fe10  1  0.666634  0.310127  0.618372  1
  Fe  Fe11  1  0.833438  0.810133  0.118138  1
  Si  Si12  1  0.088318  0.690756  0.367963  1
  Si  Si13  1  0.411647  0.190795  0.868012  1
  Si  Si14  1  0.588366  0.809216  0.367975  1
  Si  Si15  1  0.911668  0.309266  0.867944  1
  O  O16  1  0.051643  0.196761  0.868219  1
  O  O17  1  0.088502  0.370366  0.366073  1
  O  O18  1  0.162296  0.788502  0.584093  1
  O  O19  1  0.158550  0.793987  0.149497  1
  O  O20  1  0.341452  0.293833  0.649466  1
  O  O21  1  0.337744  0.288575  0.084060  1
  O  O22  1  0.411514  0.870371  0.866069  1
  O  O23  1  0.448327  0.696572  0.368449  1
  O  O24  1  0.551722  0.303820  0.868321  1
  O  O25  1  0.588760  0.129682  0.366092  1
  O  O26  1  0.662337  0.711256  0.584230  1
  O  O27  1  0.658535  0.706205  0.149656  1
  O  O28  1  0.841439  0.206187  0.649455  1
  O  O29  1  0.837664  0.211195  0.084085  1
  O  O30  1  0.911315  0.629714  0.865951  1
  O  O31  1  0.948260  0.803431  0.368376  1
