# generated using pymatgen
data_Mn5V(PO4)6
_symmetry_space_group_name_H-M   'P 1'
_cell_length_a   8.63716212
_cell_length_b   8.61227979
_cell_length_c   8.61227955
_cell_angle_alpha   60.00000361
_cell_angle_beta   60.09525259
_cell_angle_gamma   60.09525404
_symmetry_Int_Tables_number   1
_chemical_formula_structural   Mn5V(PO4)6
_chemical_formula_sum   'Mn5 V1 P6 O24'
_cell_volume   453.64498382
_cell_formula_units_Z   1
loop_
 _symmetry_equiv_pos_site_id
 _symmetry_equiv_pos_as_xyz
  1  'x, y, z'
loop_
 _atom_site_type_symbol
 _atom_site_label
 _atom_site_symmetry_multiplicity
 _atom_site_fract_x
 _atom_site_fract_y
 _atom_site_fract_z
 _atom_site_occupancy
  Mn  Mn0  1  0.000772  0.999742  0.999742  1
  Mn  Mn1  1  0.070497  0.643168  0.643168  1
  Mn  Mn2  1  0.502719  0.499094  0.499094  1
  Mn  Mn3  1  0.432540  0.855820  0.855820  1
  Mn  Mn4  1  0.931574  0.356142  0.356142  1
  V  V5  1  0.569474  0.143509  0.143509  1
  P  P6  1  0.249079  0.249810  0.542376  1
  P  P7  1  0.249079  0.958735  0.249810  1
  P  P8  1  0.249079  0.542376  0.958735  1
  P  P9  1  0.750738  0.459417  0.040972  1
  P  P10  1  0.750738  0.040972  0.748874  1
  P  P11  1  0.750738  0.748874  0.459417  1
  O  O12  1  0.065679  0.115947  0.304593  1
  O  O13  1  0.065679  0.513781  0.115947  1
  O  O14  1  0.065679  0.304593  0.513781  1
  O  O15  1  0.235949  0.084579  0.737235  1
  O  O16  1  0.430452  0.187689  0.382023  1
  O  O17  1  0.270127  0.413957  0.551973  1
  O  O18  1  0.235949  0.942237  0.084579  1
  O  O19  1  0.270127  0.763944  0.413957  1
  O  O20  1  0.566906  0.617758  0.011555  1
  O  O21  1  0.270127  0.551973  0.763944  1
  O  O22  1  0.759496  0.262675  0.061573  1
  O  O23  1  0.566906  0.011555  0.803783  1
  O  O24  1  0.430452  -0.000165  0.187689  1
  O  O25  1  0.235949  0.737235  0.942237  1
  O  O26  1  0.734314  0.440957  0.237761  1
  O  O27  1  0.430452  0.382023  -0.000165  1
  O  O28  1  0.734314  0.237761  0.586968  1
  O  O29  1  0.759496  0.061573  0.916256  1
  O  O30  1  0.734314  0.586968  0.440957  1
  O  O31  1  0.566906  0.803783  0.617758  1
  O  O32  1  0.759496  0.916256  0.262675  1
  O  O33  1  0.934734  0.695753  0.486291  1
  O  O34  1  0.934734  0.486291  0.883223  1
  O  O35  1  0.934734  0.883223  0.695753  1
