# generated using pymatgen
data_V3OF11
_symmetry_space_group_name_H-M   'P 1'
_cell_length_a   5.46497270
_cell_length_b   5.26515447
_cell_length_c   14.83636826
_cell_angle_alpha   90.01132037
_cell_angle_beta   100.25778574
_cell_angle_gamma   90.00288957
_symmetry_Int_Tables_number   1
_chemical_formula_structural   V3OF11
_chemical_formula_sum   'V6 O2 F22'
_cell_volume   420.07718270
_cell_formula_units_Z   2
loop_
 _symmetry_equiv_pos_site_id
 _symmetry_equiv_pos_as_xyz
  1  'x, y, z'
loop_
 _atom_site_type_symbol
 _atom_site_label
 _atom_site_symmetry_multiplicity
 _atom_site_fract_x
 _atom_site_fract_y
 _atom_site_fract_z
 _atom_site_occupancy
  V  V0  1  0.999718  -0.000091  0.000166  1
  V  V1  1  0.154396  0.508221  0.334174  1
  V  V2  1  0.320694  0.992054  0.667160  1
  V  V3  1  0.499696  0.499883  0.000080  1
  V  V4  1  0.626187  0.024695  0.330440  1
  V  V5  1  0.792529  0.475648  0.663636  1
  O  O6  1  0.375519  0.204850  0.310911  1
  O  O7  1  0.541920  0.295431  0.644347  1
  F  F8  1  0.021725  0.208155  0.641969  1
  F  F9  1  0.188926  0.303147  0.975434  1
  F  F10  1  0.138856  0.706643  0.689932  1
  F  F11  1  0.041621  0.086598  0.116965  1
  F  F12  1  0.217300  0.411234  0.450160  1
  F  F13  1  0.383815  0.089189  0.783319  1
  F  F14  1  0.131030  0.575553  0.216088  1
  F  F15  1  0.299596  0.924780  0.549303  1
  F  F16  1  0.461275  0.586760  0.883358  1
  F  F17  1  0.688954  0.196787  0.975524  1
  F  F18  1  0.311024  0.802812  0.024773  1
  F  F19  1  0.468557  0.715290  0.357784  1
  F  F20  1  0.635372  0.784906  0.690916  1
  F  F21  1  0.541299  0.412348  0.116803  1
  F  F22  1  0.728503  0.073279  0.449169  1
  F  F23  1  0.895559  0.427323  0.782505  1
  F  F24  1  0.635565  0.906887  0.219136  1
  F  F25  1  0.802474  0.590938  0.552236  1
  F  F26  1  0.959328  0.914770  0.883214  1
  F  F27  1  0.855294  0.291478  0.308646  1
  F  F28  1  0.811102  0.697102  0.024882  1
  F  F29  1  0.972165  0.793328  0.356972  1
