# generated using pymatgen
data_Ni(SO4)2
_symmetry_space_group_name_H-M   'P 1'
_cell_length_a   8.93065341
_cell_length_b   8.93065293
_cell_length_c   8.93065297
_cell_angle_alpha   55.42524044
_cell_angle_beta   55.42524209
_cell_angle_gamma   55.42524515
_symmetry_Int_Tables_number   1
_chemical_formula_structural   Ni(SO4)2
_chemical_formula_sum   'Ni3 S6 O24'
_cell_volume   450.14236711
_cell_formula_units_Z   3
loop_
 _symmetry_equiv_pos_site_id
 _symmetry_equiv_pos_as_xyz
  1  'x, y, z'
loop_
 _atom_site_type_symbol
 _atom_site_label
 _atom_site_symmetry_multiplicity
 _atom_site_fract_x
 _atom_site_fract_y
 _atom_site_fract_z
 _atom_site_occupancy
  Ni  Ni0  1  0.151100  0.151100  0.151100  1
  Ni  Ni1  1  0.644032  0.644032  0.644032  1
  Ni  Ni2  1  0.848744  0.848744  0.848744  1
  S  S3  1  0.041434  0.756815  0.456185  1
  S  S4  1  0.456185  0.041434  0.756815  1
  S  S5  1  0.756815  0.456185  0.041434  1
  S  S6  1  0.248104  0.541511  0.955883  1
  S  S7  1  0.541511  0.955883  0.248104  1
  S  S8  1  0.955883  0.248104  0.541511  1
  O  O9  1  0.109042  0.296387  0.507310  1
  O  O10  1  0.296387  0.507310  0.109042  1
  O  O11  1  0.997990  0.966864  0.332177  1
  O  O12  1  0.507310  0.109042  0.296387  1
  O  O13  1  0.025619  0.717613  0.650385  1
  O  O14  1  0.243012  0.639426  0.366140  1
  O  O15  1  0.366140  0.243012  0.639426  1
  O  O16  1  0.332177  0.997990  0.966864  1
  O  O17  1  0.639426  0.366140  0.243012  1
  O  O18  1  0.040065  0.670926  0.992438  1
  O  O19  1  0.283175  0.350157  0.969854  1
  O  O20  1  0.350157  0.969854  0.283175  1
  O  O21  1  0.650385  0.025619  0.717613  1
  O  O22  1  0.717613  0.650385  0.025619  1
  O  O23  1  0.966864  0.332177  0.997990  1
  O  O24  1  0.373904  0.630476  0.758929  1
  O  O25  1  0.670926  0.992438  0.040065  1
  O  O26  1  0.630476  0.758929  0.373904  1
  O  O27  1  0.758929  0.373904  0.630476  1
  O  O28  1  0.969854  0.283175  0.350157  1
  O  O29  1  0.479541  0.901942  0.697782  1
  O  O30  1  0.992438  0.040065  0.670926  1
  O  O31  1  0.697782  0.479541  0.901942  1
  O  O32  1  0.901942  0.697782  0.479541  1
