# generated using pymatgen
data_Li4Mn2Fe3Ni3O16
_symmetry_space_group_name_H-M   'P 1'
_cell_length_a   5.83231069
_cell_length_b   5.76112453
_cell_length_c   9.37816809
_cell_angle_alpha   89.95188222
_cell_angle_beta   91.51257218
_cell_angle_gamma   119.63556390
_symmetry_Int_Tables_number   1
_chemical_formula_structural   Li4Mn2Fe3Ni3O16
_chemical_formula_sum   'Li4 Mn2 Fe3 Ni3 O16'
_cell_volume   273.76976063
_cell_formula_units_Z   1
loop_
 _symmetry_equiv_pos_site_id
 _symmetry_equiv_pos_as_xyz
  1  'x, y, z'
loop_
 _atom_site_type_symbol
 _atom_site_label
 _atom_site_symmetry_multiplicity
 _atom_site_fract_x
 _atom_site_fract_y
 _atom_site_fract_z
 _atom_site_occupancy
  Li  Li0  1  0.324881  0.662304  0.895283  1
  Li  Li1  1  0.994084  0.997067  0.991984  1
  Li  Li2  1  0.995900  0.997878  0.494764  1
  Li  Li3  1  0.668065  0.334276  0.400567  1
  Mn  Mn4  1  0.344655  0.672586  0.486973  1
  Mn  Mn5  1  0.664923  0.332222  0.984225  1
  Fe  Fe6  1  0.170259  0.830799  0.213212  1
  Fe  Fe7  1  0.170510  0.339428  0.213224  1
  Fe  Fe8  1  0.339060  0.169564  0.713676  1
  Ni  Ni9  1  0.659068  0.829700  0.211173  1
  Ni  Ni10  1  0.827179  0.659920  0.712560  1
  Ni  Ni11  1  0.827114  0.167241  0.712563  1
  O  O12  1  0.184342  0.845270  0.596176  1
  O  O13  1  0.041106  0.520423  0.347762  1
  O  O14  1  0.344000  0.672169  0.105712  1
  O  O15  1  0.986599  0.993121  0.304033  1
  O  O16  1  0.988085  0.993959  0.803315  1
  O  O17  1  0.184493  0.339089  0.595987  1
  O  O18  1  0.480139  0.961222  0.348619  1
  O  O19  1  0.481361  0.520777  0.348404  1
  O  O20  1  0.339580  0.169852  0.100004  1
  O  O21  1  0.677300  0.838907  0.594960  1
  O  O22  1  0.504219  0.469336  0.846587  1
  O  O23  1  0.503907  0.034757  0.846621  1
  O  O24  1  0.677374  0.338840  0.610898  1
  O  O25  1  0.835689  0.664204  0.092454  1
  O  O26  1  0.951258  0.475382  0.843407  1
  O  O27  1  0.834852  0.170011  0.092695  1
