# generated using pymatgen
data_LiMnP2O7
_symmetry_space_group_name_H-M   'P 1'
_cell_length_a   5.13227972
_cell_length_b   7.96901262
_cell_length_c   12.95310455
_cell_angle_alpha   89.99984140
_cell_angle_beta   90.00314398
_cell_angle_gamma   93.20862613
_symmetry_Int_Tables_number   1
_chemical_formula_structural   LiMnP2O7
_chemical_formula_sum   'Li4 Mn4 P8 O28'
_cell_volume   528.94113911
_cell_formula_units_Z   4
loop_
 _symmetry_equiv_pos_site_id
 _symmetry_equiv_pos_as_xyz
  1  'x, y, z'
loop_
 _atom_site_type_symbol
 _atom_site_label
 _atom_site_symmetry_multiplicity
 _atom_site_fract_x
 _atom_site_fract_y
 _atom_site_fract_z
 _atom_site_occupancy
  Li  Li0  1  0.211388  0.142657  0.173846  1
  Li  Li1  1  0.288616  0.357344  0.673844  1
  Li  Li2  1  0.711384  0.642654  0.326159  1
  Li  Li3  1  0.788615  0.857343  0.826157  1
  Mn  Mn4  1  0.222466  0.845817  0.358196  1
  Mn  Mn5  1  0.277532  0.654176  0.858188  1
  Mn  Mn6  1  0.722463  0.345822  0.141798  1
  Mn  Mn7  1  0.777548  0.154165  0.641813  1
  P  P8  1  0.207943  0.296368  0.977525  1
  P  P9  1  0.208306  0.444157  0.308152  1
  P  P10  1  0.291686  0.055848  0.808152  1
  P  P11  1  0.292045  0.203626  0.477529  1
  P  P12  1  0.707959  0.796374  0.522470  1
  P  P13  1  0.708318  0.944153  0.191850  1
  P  P14  1  0.791692  0.555841  0.691847  1
  P  P15  1  0.792057  0.703638  0.022471  1
  O  O16  1  0.995734  0.950714  0.220602  1
  O  O17  1  0.034999  0.331093  0.236877  1
  O  O18  1  0.045788  0.766966  0.972022  1
  O  O19  1  0.095157  0.147267  0.560626  1
  O  O20  1  0.090653  0.617720  0.317029  1
  O  O21  1  0.169675  0.426961  0.892455  1
  O  O22  1  0.173064  0.364552  0.422109  1
  O  O23  1  0.326931  0.135450  0.922112  1
  O  O24  1  0.330317  0.073040  0.392460  1
  O  O25  1  0.409337  0.882287  0.817027  1
  O  O26  1  0.404832  0.352728  0.060631  1
  O  O27  1  0.454210  0.733035  0.472017  1
  O  O28  1  0.504280  0.549281  0.720594  1
  O  O29  1  0.464983  0.168916  0.736879  1
  O  O30  1  0.535018  0.831086  0.263122  1
  O  O31  1  0.495719  0.450720  0.279407  1
  O  O32  1  0.545793  0.266965  0.527987  1
  O  O33  1  0.595161  0.647273  0.939368  1
  O  O34  1  0.590666  0.117718  0.182971  1
  O  O35  1  0.669683  0.926961  0.607543  1
  O  O36  1  0.673068  0.864550  0.077890  1
  O  O37  1  0.826933  0.635448  0.577891  1
  O  O38  1  0.830326  0.573043  0.107544  1
  O  O39  1  0.909347  0.382278  0.682973  1
  O  O40  1  0.904842  0.852732  0.439377  1
  O  O41  1  0.954211  0.233034  0.027976  1
  O  O42  1  0.964996  0.668908  0.763123  1
  O  O43  1  0.004263  0.049286  0.779399  1
