# generated using pymatgen
data_Ni3Sn(PO4)4
_symmetry_space_group_name_H-M   'P 1'
_cell_length_a   4.84522940
_cell_length_b   9.97036757
_cell_length_c   5.87729157
_cell_angle_alpha   90.00000000
_cell_angle_beta   90.00000000
_cell_angle_gamma   89.80077297
_symmetry_Int_Tables_number   1
_chemical_formula_structural   Ni3Sn(PO4)4
_chemical_formula_sum   'Ni3 Sn1 P4 O16'
_cell_volume   283.92270512
_cell_formula_units_Z   1
loop_
 _symmetry_equiv_pos_site_id
 _symmetry_equiv_pos_as_xyz
  1  'x, y, z'
loop_
 _atom_site_type_symbol
 _atom_site_label
 _atom_site_symmetry_multiplicity
 _atom_site_fract_x
 _atom_site_fract_y
 _atom_site_fract_z
 _atom_site_occupancy
  Ni  Ni0  1  0.043704  0.726964  0.750000  1
  Ni  Ni1  1  0.454469  0.224185  0.750000  1
  Ni  Ni2  1  0.545438  0.771713  0.250000  1
  Sn  Sn3  1  0.962242  0.276477  0.250000  1
  P  P4  1  0.094140  0.601250  0.250000  1
  P  P5  1  0.404913  0.087345  0.250000  1
  P  P6  1  0.591023  0.901996  0.750000  1
  P  P7  1  0.912374  0.410411  0.750000  1
  O  O8  1  0.178666  0.450279  0.250000  1
  O  O9  1  0.238624  0.673472  0.045255  1
  O  O10  1  0.238624  0.673472  0.454745  1
  O  O11  1  0.221730  0.387172  0.750000  1
  O  O12  1  0.275671  0.889564  0.750000  1
  O  O13  1  0.257800  0.166512  0.047330  1
  O  O14  1  0.257800  0.166512  0.452670  1
  O  O15  1  0.333396  0.939925  0.250000  1
  O  O16  1  0.661704  0.051735  0.750000  1
  O  O17  1  0.736522  0.827989  0.545516  1
  O  O18  1  0.736522  0.827989  0.954484  1
  O  O19  1  0.719236  0.109443  0.250000  1
  O  O20  1  0.779249  0.609789  0.250000  1
  O  O21  1  0.761305  0.333824  0.545604  1
  O  O22  1  0.761305  0.333824  0.954396  1
  O  O23  1  0.833540  0.558161  0.750000  1
