# generated using pymatgen
data_Li4MnV3(PO4)4
_symmetry_space_group_name_H-M   'P 1'
_cell_length_a   4.77927707
_cell_length_b   10.54177794
_cell_length_c   6.15041129
_cell_angle_alpha   90.00000000
_cell_angle_beta   90.00000000
_cell_angle_gamma   89.98509430
_symmetry_Int_Tables_number   1
_chemical_formula_structural   Li4MnV3(PO4)4
_chemical_formula_sum   'Li4 Mn1 V3 P4 O16'
_cell_volume   309.87048831
_cell_formula_units_Z   1
loop_
 _symmetry_equiv_pos_site_id
 _symmetry_equiv_pos_as_xyz
  1  'x, y, z'
loop_
 _atom_site_type_symbol
 _atom_site_label
 _atom_site_symmetry_multiplicity
 _atom_site_fract_x
 _atom_site_fract_y
 _atom_site_fract_z
 _atom_site_occupancy
  Li  Li0  1  0.000040  0.999695  0.999245  1
  Li  Li1  1  0.000040  0.999695  0.500755  1
  Li  Li2  1  0.500634  0.499067  0.498927  1
  Li  Li3  1  0.500634  0.499067  0.001073  1
  Mn  Mn4  1  0.022358  0.720205  0.750000  1
  V  V5  1  0.482143  0.223761  0.750000  1
  V  V6  1  0.517752  0.777214  0.250000  1
  V  V7  1  0.983010  0.275394  0.250000  1
  P  P8  1  0.085402  0.592891  0.250000  1
  P  P9  1  0.414715  0.093288  0.250000  1
  P  P10  1  0.585223  0.908702  0.750000  1
  P  P11  1  0.913898  0.405778  0.750000  1
  O  O12  1  0.205885  0.456204  0.250000  1
  O  O13  1  0.220555  0.662880  0.049409  1
  O  O14  1  0.220555  0.662880  0.450591  1
  O  O15  1  0.236064  0.403315  0.750000  1
  O  O16  1  0.262988  0.904533  0.750000  1
  O  O17  1  0.279314  0.162959  0.049084  1
  O  O18  1  0.279314  0.162959  0.450916  1
  O  O19  1  0.293571  0.956547  0.250000  1
  O  O20  1  0.707894  0.045280  0.750000  1
  O  O21  1  0.718666  0.838933  0.549109  1
  O  O22  1  0.718666  0.838933  0.950891  1
  O  O23  1  0.736669  0.097091  0.250000  1
  O  O24  1  0.763319  0.596990  0.250000  1
  O  O25  1  0.779309  0.336585  0.548691  1
  O  O26  1  0.779309  0.336585  0.951309  1
  O  O27  1  0.792076  0.542567  0.750000  1
