# generated using pymatgen
data_LiMn3(BO3)3
_symmetry_space_group_name_H-M   'P 1'
_cell_length_a   5.79659442
_cell_length_b   14.12442043
_cell_length_c   5.29683991
_cell_angle_alpha   103.42380799
_cell_angle_beta   112.53901266
_cell_angle_gamma   100.80824017
_symmetry_Int_Tables_number   1
_chemical_formula_structural   LiMn3(BO3)3
_chemical_formula_sum   'Li2 Mn6 B6 O18'
_cell_volume   370.69061421
_cell_formula_units_Z   2
loop_
 _symmetry_equiv_pos_site_id
 _symmetry_equiv_pos_as_xyz
  1  'x, y, z'
loop_
 _atom_site_type_symbol
 _atom_site_label
 _atom_site_symmetry_multiplicity
 _atom_site_fract_x
 _atom_site_fract_y
 _atom_site_fract_z
 _atom_site_occupancy
  Li  Li0  1  0.670314  0.461769  0.980638  1
  Li  Li1  1  0.329686  0.871565  0.686029  1
  Mn  Mn2  1  0.728534  0.250122  0.854020  1
  Mn  Mn3  1  0.744018  0.596756  0.561208  1
  Mn  Mn4  1  0.760501  0.924483  0.249110  1
  Mn  Mn5  1  0.271466  0.083212  0.812647  1
  Mn  Mn6  1  0.239499  0.408851  0.417557  1
  Mn  Mn7  1  0.255982  0.736577  0.105459  1
  B  B8  1  0.753493  0.032578  0.809913  1
  B  B9  1  0.743481  0.370616  0.455591  1
  B  B10  1  0.740259  0.689809  0.121989  1
  B  B11  1  0.246507  0.300755  0.856754  1
  B  B12  1  0.259741  0.643525  0.544678  1
  B  B13  1  0.256519  0.962717  0.211076  1
  O  O14  1  0.888841  0.048800  0.644915  1
  O  O15  1  0.826544  0.380847  0.243843  1
  O  O16  1  0.719275  0.283075  0.520406  1
  O  O17  1  0.721293  0.602082  0.187477  1
  O  O18  1  0.647415  0.109451  0.891914  1
  O  O19  1  0.668762  0.450107  0.584234  1
  O  O20  1  0.628984  0.763268  0.199099  1
  O  O21  1  0.870827  0.707707  0.953901  1
  O  O22  1  0.280725  0.050258  0.146261  1
  O  O23  1  0.702973  0.943806  0.860336  1
  O  O24  1  0.111159  0.284533  0.021752  1
  O  O25  1  0.352585  0.223883  0.774753  1
  O  O26  1  0.371016  0.570065  0.467568  1
  O  O27  1  0.331238  0.883226  0.082432  1
  O  O28  1  0.297027  0.389527  0.806330  1
  O  O29  1  0.278707  0.731251  0.479190  1
  O  O30  1  0.129173  0.625626  0.712766  1
  O  O31  1  0.173456  0.952487  0.422824  1
