# generated using pymatgen
data_Li3TiV3O8
_symmetry_space_group_name_H-M   'P 1'
_cell_length_a   5.91512032
_cell_length_b   5.91538088
_cell_length_c   9.66869879
_cell_angle_alpha   89.99606353
_cell_angle_beta   90.00202935
_cell_angle_gamma   60.00568797
_symmetry_Int_Tables_number   1
_chemical_formula_structural   Li3TiV3O8
_chemical_formula_sum   'Li6 Ti2 V6 O16'
_cell_volume   293.00150124
_cell_formula_units_Z   2
loop_
 _symmetry_equiv_pos_site_id
 _symmetry_equiv_pos_as_xyz
  1  'x, y, z'
loop_
 _atom_site_type_symbol
 _atom_site_label
 _atom_site_symmetry_multiplicity
 _atom_site_fract_x
 _atom_site_fract_y
 _atom_site_fract_z
 _atom_site_occupancy
  Li  Li0  1  0.172434  0.172706  0.557693  1
  Li  Li1  1  0.654624  0.172743  0.557685  1
  Li  Li2  1  0.172860  0.654299  0.557797  1
  Li  Li3  1  0.827493  0.345219  0.057749  1
  Li  Li4  1  0.345612  0.827218  0.057874  1
  Li  Li5  1  0.827135  0.827507  0.057874  1
  Ti  Ti6  1  0.333326  0.333410  0.004892  1
  Ti  Ti7  1  0.666653  0.666688  0.504915  1
  V  V8  1  0.169453  0.169151  0.285641  1
  V  V9  1  0.661530  0.169447  0.285656  1
  V  V10  1  0.169109  0.661474  0.285639  1
  V  V11  1  0.830690  0.338479  0.785663  1
  V  V12  1  0.338507  0.830828  0.785658  1
  V  V13  1  0.830740  0.830648  0.785652  1
  O  O14  1  0.000018  0.999998  0.177885  1
  O  O15  1  0.999966  0.000007  0.677877  1
  O  O16  1  0.166665  0.167285  0.911191  1
  O  O17  1  0.481297  0.035783  0.153582  1
  O  O18  1  0.035668  0.483068  0.153560  1
  O  O19  1  0.333415  0.333364  0.400094  1
  O  O20  1  0.665887  0.166635  0.911076  1
  O  O21  1  0.483020  0.481234  0.153458  1
  O  O22  1  0.167320  0.665892  0.911032  1
  O  O23  1  0.833670  0.334012  0.411142  1
  O  O24  1  0.518415  0.517400  0.653425  1
  O  O25  1  0.964310  0.518300  0.653540  1
  O  O26  1  0.666616  0.666571  0.900041  1
  O  O27  1  0.334126  0.832379  0.411047  1
  O  O28  1  0.517304  0.964306  0.653507  1
  O  O29  1  0.832487  0.833591  0.411181  1
