# generated using pymatgen
data_Li8FeNi9O20
_symmetry_space_group_name_H-M   'P 1'
_cell_length_a   7.59004184
_cell_length_b   7.59746137
_cell_length_c   6.41224406
_cell_angle_alpha   91.06914217
_cell_angle_beta   90.75544580
_cell_angle_gamma   67.05147056
_symmetry_Int_Tables_number   1
_chemical_formula_structural   Li8FeNi9O20
_chemical_formula_sum   'Li8 Fe1 Ni9 O20'
_cell_volume   340.43141833
_cell_formula_units_Z   1
loop_
 _symmetry_equiv_pos_site_id
 _symmetry_equiv_pos_as_xyz
  1  'x, y, z'
loop_
 _atom_site_type_symbol
 _atom_site_label
 _atom_site_symmetry_multiplicity
 _atom_site_fract_x
 _atom_site_fract_y
 _atom_site_fract_z
 _atom_site_occupancy
  Li  Li0  1  0.100000  0.100000  0.600000  1
  Li  Li1  1  0.100000  0.600000  0.100000  1
  Li  Li2  1  0.314160  0.288589  0.787422  1
  Li  Li3  1  0.308719  0.806771  0.308449  1
  Li  Li4  1  0.502563  0.496696  0.994259  1
  Li  Li5  1  0.697437  0.703304  0.205741  1
  Li  Li6  1  0.891281  0.393229  0.891551  1
  Li  Li7  1  0.885840  0.911411  0.412578  1
  Fe  Fe8  1  0.600000  0.100000  0.100000  1
  Ni  Ni9  1  0.198112  0.200306  0.199630  1
  Ni  Ni10  1  0.001888  -0.000306  0.000370  1
  Ni  Ni11  1  0.201108  0.697963  0.702440  1
  Ni  Ni12  1  0.399571  0.398521  0.403551  1
  Ni  Ni13  1  0.399563  0.895656  0.898367  1
  Ni  Ni14  1  0.600000  0.600000  0.600000  1
  Ni  Ni15  1  0.800437  0.304344  0.301633  1
  Ni  Ni16  1  0.800429  0.801479  0.796449  1
  Ni  Ni17  1  0.998892  0.502037  0.497560  1
  O  O18  1  0.054444  0.058881  0.282309  1
  O  O19  1  0.145556  0.141119  0.917691  1
  O  O20  1  0.056132  0.552417  0.776993  1
  O  O21  1  0.223791  0.275815  0.485144  1
  O  O22  1  0.143868  0.647583  0.423007  1
  O  O23  1  0.345323  0.337284  0.109933  1
  O  O24  1  0.252616  0.749311  0.981103  1
  O  O25  1  0.546626  0.041217  0.826970  1
  O  O26  1  0.428758  0.479478  0.692491  1
  O  O27  1  0.342908  0.838093  0.621787  1
  O  O28  1  0.653374  0.158783  0.373030  1
  O  O29  1  0.548630  0.549940  0.322301  1
  O  O30  1  0.746928  0.249848  0.024975  1
  O  O31  1  0.453072  0.950152  0.175025  1
  O  O32  1  0.651370  0.650060  0.877699  1
  O  O33  1  0.857092  0.361907  0.578213  1
  O  O34  1  0.771242  0.720522  0.507509  1
  O  O35  1  0.947384  0.450689  0.218897  1
  O  O36  1  0.854677  0.862716  0.090067  1
  O  O37  1  0.976209  0.924185  0.714856  1
