# generated using pymatgen
data_MnCr2Fe3(PO4)6
_symmetry_space_group_name_H-M   'P 1'
_cell_length_a   8.42393008
_cell_length_b   8.42393062
_cell_length_c   8.42393070
_cell_angle_alpha   61.67822769
_cell_angle_beta   61.67823173
_cell_angle_gamma   61.67823435
_symmetry_Int_Tables_number   1
_chemical_formula_structural   MnCr2Fe3(PO4)6
_chemical_formula_sum   'Mn1 Cr2 Fe3 P6 O24'
_cell_volume   438.60099577
_cell_formula_units_Z   1
loop_
 _symmetry_equiv_pos_site_id
 _symmetry_equiv_pos_as_xyz
  1  'x, y, z'
loop_
 _atom_site_type_symbol
 _atom_site_label
 _atom_site_symmetry_multiplicity
 _atom_site_fract_x
 _atom_site_fract_y
 _atom_site_fract_z
 _atom_site_occupancy
  Mn  Mn0  1  0.854891  0.854891  0.854891  1
  Cr  Cr1  1  0.000488  0.000488  0.000488  1
  Cr  Cr2  1  0.499516  0.499516  0.499516  1
  Fe  Fe3  1  0.146320  0.146320  0.146320  1
  Fe  Fe4  1  0.353139  0.353139  0.353139  1
  Fe  Fe5  1  0.646561  0.646561  0.646561  1
  P  P6  1  0.249876  0.548230  0.950364  1
  P  P7  1  0.548230  0.950364  0.249876  1
  P  P8  1  0.950364  0.249876  0.548230  1
  P  P9  1  0.049265  0.749471  0.451929  1
  P  P10  1  0.451929  0.049265  0.749471  1
  P  P11  1  0.749471  0.451929  0.049265  1
  O  O12  1  0.104852  0.324095  0.504450  1
  O  O13  1  0.324095  0.504450  0.104852  1
  O  O14  1  0.062345  0.904506  0.248648  1
  O  O15  1  0.504450  0.104852  0.324095  1
  O  O16  1  0.011189  0.822236  0.604593  1
  O  O17  1  0.252954  0.594559  0.435135  1
  O  O18  1  0.248648  0.062345  0.904506  1
  O  O19  1  0.435135  0.252954  0.594559  1
  O  O20  1  0.175053  0.394423  0.994393  1
  O  O21  1  0.594559  0.435135  0.252954  1
  O  O22  1  0.095464  0.751266  0.938483  1
  O  O23  1  0.394423  0.994393  0.175053  1
  O  O24  1  0.604593  0.011189  0.822236  1
  O  O25  1  0.904506  0.248648  0.062345  1
  O  O26  1  0.404329  0.563014  0.747312  1
  O  O27  1  0.822236  0.604593  0.011189  1
  O  O28  1  0.563014  0.747312  0.404329  1
  O  O29  1  0.751266  0.938483  0.095464  1
  O  O30  1  0.747312  0.404329  0.563014  1
  O  O31  1  0.994393  0.175053  0.394423  1
  O  O32  1  0.497119  0.894727  0.674804  1
  O  O33  1  0.938483  0.095464  0.751266  1
  O  O34  1  0.674804  0.497119  0.894727  1
  O  O35  1  0.894727  0.674804  0.497119  1
