# generated using pymatgen
data_LiMnSiO4
_symmetry_space_group_name_H-M   'P 1'
_cell_length_a   6.40111904
_cell_length_b   9.03500992
_cell_length_c   4.91451265
_cell_angle_alpha   90.00000000
_cell_angle_beta   90.00000000
_cell_angle_gamma   90.00000000
_symmetry_Int_Tables_number   1
_chemical_formula_structural   LiMnSiO4
_chemical_formula_sum   'Li4 Mn4 Si4 O16'
_cell_volume   284.22677985
_cell_formula_units_Z   4
loop_
 _symmetry_equiv_pos_site_id
 _symmetry_equiv_pos_as_xyz
  1  'x, y, z'
loop_
 _atom_site_type_symbol
 _atom_site_label
 _atom_site_symmetry_multiplicity
 _atom_site_fract_x
 _atom_site_fract_y
 _atom_site_fract_z
 _atom_site_occupancy
  Li  Li0  1  0.250000  0.161386  0.459759  1
  Li  Li1  1  0.250000  0.661386  0.040241  1
  Li  Li2  1  0.750000  0.338614  0.959759  1
  Li  Li3  1  0.750000  0.838614  0.540241  1
  Mn  Mn4  1  0.000000  0.000000  0.000000  1
  Mn  Mn5  1  0.000000  0.500000  0.500000  1
  Mn  Mn6  1  0.500000  0.000000  0.000000  1
  Mn  Mn7  1  0.500000  0.500000  0.500000  1
  Si  Si8  1  0.250000  0.320635  0.964418  1
  Si  Si9  1  0.250000  0.820635  0.535582  1
  Si  Si10  1  0.750000  0.179365  0.464418  1
  Si  Si11  1  0.750000  0.679365  0.035582  1
  O  O12  1  0.038148  0.381598  0.814808  1
  O  O13  1  0.038148  0.881598  0.685192  1
  O  O14  1  0.250000  0.136212  0.901073  1
  O  O15  1  0.250000  0.367974  0.286700  1
  O  O16  1  0.250000  0.867974  0.213300  1
  O  O17  1  0.250000  0.636212  0.598927  1
  O  O18  1  0.461852  0.381598  0.814808  1
  O  O19  1  0.461852  0.881598  0.685192  1
  O  O20  1  0.538148  0.118402  0.314808  1
  O  O21  1  0.538148  0.618402  0.185192  1
  O  O22  1  0.750000  0.132026  0.786700  1
  O  O23  1  0.750000  0.363787  0.401073  1
  O  O24  1  0.750000  0.632026  0.713300  1
  O  O25  1  0.750000  0.863788  0.098927  1
  O  O26  1  0.961852  0.118402  0.314808  1
  O  O27  1  0.961852  0.618402  0.185192  1
