# generated using pymatgen
data_Li2V(CO3)2
_symmetry_space_group_name_H-M   'P 1'
_cell_length_a   5.23448184
_cell_length_b   6.92076257
_cell_length_c   7.76728974
_cell_angle_alpha   89.99976320
_cell_angle_beta   89.99857666
_cell_angle_gamma   110.67691744
_symmetry_Int_Tables_number   1
_chemical_formula_structural   Li2V(CO3)2
_chemical_formula_sum   'Li4 V2 C4 O12'
_cell_volume   263.25767039
_cell_formula_units_Z   2
loop_
 _symmetry_equiv_pos_site_id
 _symmetry_equiv_pos_as_xyz
  1  'x, y, z'
loop_
 _atom_site_type_symbol
 _atom_site_label
 _atom_site_symmetry_multiplicity
 _atom_site_fract_x
 _atom_site_fract_y
 _atom_site_fract_z
 _atom_site_occupancy
  Li  Li0  1  0.133691  0.732221  0.584497  1
  Li  Li1  1  0.366300  0.767786  0.084479  1
  Li  Li2  1  0.633713  0.232233  0.915504  1
  Li  Li3  1  0.866299  0.267770  0.415504  1
  V  V4  1  0.500011  0.500003  0.500004  1
  V  V5  1  0.000002  0.000010  0.000002  1
  C  C6  1  0.694831  0.858169  0.735220  1
  C  C7  1  0.805276  0.641892  0.235092  1
  C  C8  1  0.194735  0.358104  0.764903  1
  C  C9  1  0.305158  0.141828  0.264765  1
  O  O10  1  0.949577  0.874346  0.735600  1
  O  O11  1  0.601876  0.911950  0.877838  1
  O  O12  1  0.538550  0.796343  0.603519  1
  O  O13  1  0.961409  0.703635  0.103565  1
  O  O14  1  0.550411  0.625649  0.235566  1
  O  O15  1  0.101826  0.411944  0.622132  1
  O  O16  1  0.898160  0.588048  0.377864  1
  O  O17  1  0.449590  0.374348  0.764416  1
  O  O18  1  0.038611  0.296374  0.896437  1
  O  O19  1  0.461472  0.203657  0.396493  1
  O  O20  1  0.398130  0.088079  0.122153  1
  O  O21  1  0.050432  0.125652  0.264410  1
