# generated using pymatgen
data_Mn5P6WO24
_symmetry_space_group_name_H-M   'P 1'
_cell_length_a   8.75764939
_cell_length_b   8.76857194
_cell_length_c   8.76857192
_cell_angle_alpha   60.00000292
_cell_angle_beta   59.95873364
_cell_angle_gamma   59.95873326
_symmetry_Int_Tables_number   1
_chemical_formula_structural   Mn5P6WO24
_chemical_formula_sum   'Mn5 P6 W1 O24'
_cell_volume   475.83801359
_cell_formula_units_Z   1
loop_
 _symmetry_equiv_pos_site_id
 _symmetry_equiv_pos_as_xyz
  1  'x, y, z'
loop_
 _atom_site_type_symbol
 _atom_site_label
 _atom_site_symmetry_multiplicity
 _atom_site_fract_x
 _atom_site_fract_y
 _atom_site_fract_z
 _atom_site_occupancy
  Mn  Mn0  1  0.026924  0.991025  0.991025  1
  Mn  Mn1  1  0.063468  0.645511  0.645511  1
  Mn  Mn2  1  0.499808  0.500064  0.500064  1
  Mn  Mn3  1  0.444657  0.851781  0.851781  1
  Mn  Mn4  1  0.933773  0.355409  0.355409  1
  P  P5  1  0.245091  0.252382  0.547456  1
  P  P6  1  0.245091  0.955072  0.252382  1
  P  P7  1  0.245091  0.547456  0.955072  1
  P  P8  1  0.748115  0.458744  0.048793  1
  P  P9  1  0.748115  0.048793  0.744349  1
  P  P10  1  0.748115  0.744349  0.458744  1
  W  W11  1  0.568392  0.143869  0.143869  1
  O  O12  1  0.070982  0.107910  0.316369  1
  O  O13  1  0.070982  0.504739  0.107910  1
  O  O14  1  0.070982  0.316369  0.504739  1
  O  O15  1  0.237309  0.086464  0.732869  1
  O  O16  1  0.422759  0.179027  0.381005  1
  O  O17  1  0.285573  0.404160  0.545229  1
  O  O18  1  0.237309  0.943358  0.086464  1
  O  O19  1  0.285573  0.765038  0.404160  1
  O  O20  1  0.568737  0.609763  0.014664  1
  O  O21  1  0.285573  0.545229  0.765038  1
  O  O22  1  0.747624  0.259605  0.076735  1
  O  O23  1  0.568737  0.014664  0.806836  1
  O  O24  1  0.422759  0.017208  0.179027  1
  O  O25  1  0.237309  0.732869  0.943358  1
  O  O26  1  0.732093  0.432118  0.244207  1
  O  O27  1  0.422759  0.381005  0.017208  1
  O  O28  1  0.732093  0.244207  0.591582  1
  O  O29  1  0.747624  0.076735  0.916036  1
  O  O30  1  0.732093  0.591582  0.432118  1
  O  O31  1  0.568737  0.806836  0.609763  1
  O  O32  1  0.747624  0.916036  0.259605  1
  O  O33  1  0.929376  0.701537  0.475250  1
  O  O34  1  0.929376  0.475250  0.893837  1
  O  O35  1  0.929376  0.893837  0.701537  1
