# generated using pymatgen
data_KLi2Sb(PO4)2
_symmetry_space_group_name_H-M   'P 1'
_cell_length_a   10.29187190
_cell_length_b   10.19354548
_cell_length_c   13.63525563
_cell_angle_alpha   78.78508697
_cell_angle_beta   79.03279816
_cell_angle_gamma   120.22058412
_symmetry_Int_Tables_number   1
_chemical_formula_structural   KLi2Sb(PO4)2
_chemical_formula_sum   'K6 Li12 Sb6 P12 O48'
_cell_volume   1140.25865114
_cell_formula_units_Z   6
loop_
 _symmetry_equiv_pos_site_id
 _symmetry_equiv_pos_as_xyz
  1  'x, y, z'
loop_
 _atom_site_type_symbol
 _atom_site_label
 _atom_site_symmetry_multiplicity
 _atom_site_fract_x
 _atom_site_fract_y
 _atom_site_fract_z
 _atom_site_occupancy
  K  K0  1  0.002979  0.504853  0.999154  1
  K  K1  1  0.166678  0.499498  0.335413  1
  K  K2  1  0.502151  0.498773  0.984701  1
  K  K3  1  0.364217  0.525955  0.668015  1
  K  K4  1  0.664764  0.498943  0.333340  1
  K  K5  1  0.828929  0.526508  0.669786  1
  Li  Li6  1  0.014581  0.327698  0.599492  1
  Li  Li7  1  0.315256  0.665895  0.073482  1
  Li  Li8  1  0.144554  0.662978  0.742460  1
  Li  Li9  1  0.355394  0.337614  0.256135  1
  Li  Li10  1  0.187555  0.345506  0.921380  1
  Li  Li11  1  0.477022  0.661507  0.407156  1
  Li  Li12  1  0.522701  0.341076  0.590742  1
  Li  Li13  1  0.710243  0.883262  0.916255  1
  Li  Li14  1  0.812506  0.665298  0.074407  1
  Li  Li15  1  0.854713  0.337154  0.259420  1
  Li  Li16  1  0.696604  0.345251  0.920830  1
  Li  Li17  1  0.980200  0.659749  0.408138  1
  Sb  Sb18  1  0.012309  0.007225  0.002936  1
  Sb  Sb19  1  0.166045  -0.000099  0.335731  1
  Sb  Sb20  1  0.494287  0.008924  0.006557  1
  Sb  Sb21  1  0.334754  0.002561  0.665677  1
  Sb  Sb22  1  0.664127  0.998784  0.331977  1
  Sb  Sb23  1  0.820736  0.978379  0.660681  1
  P  P24  1  0.079786  0.744024  0.168715  1
  P  P25  1  0.090134  0.258678  0.165233  1
  P  P26  1  0.243608  0.738561  0.502884  1
  P  P27  1  0.574008  0.740836  0.166835  1
  P  P28  1  0.253284  0.255773  0.499072  1
  P  P29  1  0.419069  0.752762  0.830679  1
  P  P30  1  0.587518  0.258413  0.164867  1
  P  P31  1  0.753283  0.749109  0.493976  1
  P  P32  1  0.414430  0.244492  0.834476  1
  P  P33  1  0.750873  0.252555  0.498665  1
  P  P34  1  0.917089  0.751867  0.840510  1
  P  P35  1  0.918901  0.255730  0.833457  1
  O  O36  1  0.976103  0.558797  0.207084  1
  O  O37  1  0.138484  0.801274  0.259004  1
  O  O38  1  0.981777  0.801748  0.931297  1
  O  O39  1  0.226146  0.806407  0.068094  1
  O  O40  1  0.056509  0.808226  0.737851  1
  O  O41  1  0.140638  0.800953  0.470374  1
  O  O42  1  0.193064  0.443873  0.123628  1
  O  O43  1  0.140960  0.553517  0.540191  1
  O  O44  1  0.297970  0.794200  0.594838  1
  O  O45  1  0.393501  0.803093  0.403686  1
  O  O46  1  0.461272  0.792580  0.142852  1
  O  O47  1  0.306816  0.807737  0.810478  1
  O  O48  1  0.191956  0.196527  0.198511  1
  O  O49  1  0.025858  0.199760  0.867487  1
  O  O50  1  0.104016  0.192665  0.594752  1
  O  O51  1  0.202121  0.197299  0.405853  1
  O  O52  1  0.480945  0.556483  0.210079  1
  O  O53  1  0.358472  0.441302  0.456867  1
  O  O54  1  0.317833  0.566979  0.872508  1
  O  O55  1  0.642063  0.807279  0.252454  1
  O  O56  1  0.490997  0.811160  0.918406  1
  O  O57  1  0.712556  0.803868  0.059831  1
  O  O58  1  0.557500  0.820850  0.724385  1
  O  O59  1  0.642812  0.802607  0.465834  1
  O  O60  1  0.359015  0.197498  0.532376  1
  O  O61  1  0.440582  0.196444  0.263171  1
  O  O62  1  0.266152  0.181397  0.935696  1
  O  O63  1  0.529148  0.200961  0.072428  1
  O  O64  1  0.356029  0.181536  0.745475  1
  O  O65  1  0.690737  0.443033  0.122488  1
  O  O66  1  0.652420  0.564284  0.542692  1
  O  O67  1  0.514495  0.428179  0.794594  1
  O  O68  1  0.827877  0.826503  0.574226  1
  O  O69  1  0.893479  0.802590  0.392719  1
  O  O70  1  0.975928  0.806312  0.138279  1
  O  O71  1  0.820283  0.827382  0.818959  1
  O  O72  1  0.690888  0.196651  0.194875  1
  O  O73  1  0.517133  0.183389  0.869759  1
  O  O74  1  0.604797  0.199273  0.596030  1
  O  O75  1  0.692615  0.191795  0.408046  1
  O  O76  1  0.857891  0.437638  0.454491  1
  O  O77  1  0.806528  0.566302  0.878539  1
  O  O78  1  0.849396  0.186696  0.533036  1
  O  O79  1  0.940548  0.197527  0.261979  1
  O  O80  1  0.770911  0.193223  0.934138  1
  O  O81  1  0.038213  0.201261  0.072228  1
  O  O82  1  0.859123  0.187783  0.747728  1
  O  O83  1  0.018057  0.441304  0.793298  1
