# generated using pymatgen
data_Li3VCr3O8
_symmetry_space_group_name_H-M   'P 1'
_cell_length_a   5.93224478
_cell_length_b   5.97390337
_cell_length_c   5.94832173
_cell_angle_alpha   120.18187294
_cell_angle_beta   60.45004995
_cell_angle_gamma   88.91455479
_symmetry_Int_Tables_number   1
_chemical_formula_structural   Li3VCr3O8
_chemical_formula_sum   'Li3 V1 Cr3 O8'
_cell_volume   148.20111061
_cell_formula_units_Z   1
loop_
 _symmetry_equiv_pos_site_id
 _symmetry_equiv_pos_as_xyz
  1  'x, y, z'
loop_
 _atom_site_type_symbol
 _atom_site_label
 _atom_site_symmetry_multiplicity
 _atom_site_fract_x
 _atom_site_fract_y
 _atom_site_fract_z
 _atom_site_occupancy
  Li  Li0  1  0.500000  0.500000  0.999999  1
  Li  Li1  1  0.000000  0.500000  0.000000  1
  Li  Li2  1  0.500000  0.000000  0.500000  1
  V  V3  1  0.000000  0.000001  0.000001  1
  Cr  Cr4  1  0.499999  0.500001  0.500001  1
  Cr  Cr5  1  0.499999  0.999999  0.000000  1
  Cr  Cr6  1  0.000000  0.500000  0.500000  1
  O  O7  1  0.732396  0.734399  0.520327  1
  O  O8  1  0.234468  0.745471  0.529347  1
  O  O9  1  0.746777  0.234223  0.019160  1
  O  O10  1  0.762681  0.761028  0.985947  1
  O  O11  1  0.237319  0.238974  0.014052  1
  O  O12  1  0.253223  0.765775  0.980839  1
  O  O13  1  0.765532  0.254529  0.470653  1
  O  O14  1  0.267604  0.265601  0.479673  1
