# generated using pymatgen
data_Li4V3Co(PO4)4
_symmetry_space_group_name_H-M   'P 1'
_cell_length_a   4.74765333
_cell_length_b   10.43804495
_cell_length_c   6.05938970
_cell_angle_alpha   90.00000000
_cell_angle_beta   90.00000000
_cell_angle_gamma   89.84360169
_symmetry_Int_Tables_number   1
_chemical_formula_structural   Li4V3Co(PO4)4
_chemical_formula_sum   'Li4 V3 Co1 P4 O16'
_cell_volume   300.27932329
_cell_formula_units_Z   1
loop_
 _symmetry_equiv_pos_site_id
 _symmetry_equiv_pos_as_xyz
  1  'x, y, z'
loop_
 _atom_site_type_symbol
 _atom_site_label
 _atom_site_symmetry_multiplicity
 _atom_site_fract_x
 _atom_site_fract_y
 _atom_site_fract_z
 _atom_site_occupancy
  Li  Li0  1  0.001440  0.997912  0.998299  1
  Li  Li1  1  0.001440  0.997912  0.501701  1
  Li  Li2  1  0.499958  0.500817  0.500089  1
  Li  Li3  1  0.499958  0.500817  -0.000089  1
  V  V4  1  0.485072  0.225135  0.750000  1
  V  V5  1  0.517074  0.774795  0.250000  1
  V  V6  1  0.983195  0.276114  0.250000  1
  Co  Co7  1  0.011861  0.725060  0.750000  1
  P  P8  1  0.081797  0.593549  0.250000  1
  P  P9  1  0.414499  0.092357  0.250000  1
  P  P10  1  0.588594  0.905496  0.750000  1
  P  P11  1  0.915503  0.409382  0.750000  1
  O  O12  1  0.206443  0.456198  0.250000  1
  O  O13  1  0.216605  0.664597  0.046050  1
  O  O14  1  0.216605  0.664597  0.453950  1
  O  O15  1  0.238263  0.403515  0.750000  1
  O  O16  1  0.265870  0.901610  0.750000  1
  O  O17  1  0.277620  0.162066  0.046468  1
  O  O18  1  0.277620  0.162066  0.453532  1
  O  O19  1  0.293695  0.953989  0.250000  1
  O  O20  1  0.707152  0.043948  0.750000  1
  O  O21  1  0.727280  0.834980  0.546058  1
  O  O22  1  0.727280  0.834980  0.953942  1
  O  O23  1  0.737020  0.096309  0.250000  1
  O  O24  1  0.758160  0.596017  0.250000  1
  O  O25  1  0.777694  0.338982  0.547214  1
  O  O26  1  0.777694  0.338982  0.952786  1
  O  O27  1  0.794604  0.547818  0.750000  1
