# generated using pymatgen
data_Li2MnV3O8
_symmetry_space_group_name_H-M   'P 1'
_cell_length_a   6.04153038
_cell_length_b   6.04153023
_cell_length_c   6.04153065
_cell_angle_alpha   59.10785264
_cell_angle_beta   59.10785627
_cell_angle_gamma   59.10785580
_symmetry_Int_Tables_number   1
_chemical_formula_structural   Li2MnV3O8
_chemical_formula_sum   'Li2 Mn1 V3 O8'
_cell_volume   152.75746314
_cell_formula_units_Z   1
loop_
 _symmetry_equiv_pos_site_id
 _symmetry_equiv_pos_as_xyz
  1  'x, y, z'
loop_
 _atom_site_type_symbol
 _atom_site_label
 _atom_site_symmetry_multiplicity
 _atom_site_fract_x
 _atom_site_fract_y
 _atom_site_fract_z
 _atom_site_occupancy
  Li  Li0  1  0.119989  0.119989  0.119989  1
  Li  Li1  1  0.501673  0.501673  0.501673  1
  Mn  Mn2  1  0.878189  0.878189  0.878189  1
  V  V3  1  0.007317  0.498014  0.498014  1
  V  V4  1  0.498014  0.007317  0.498014  1
  V  V5  1  0.498014  0.498014  0.007317  1
  O  O6  1  0.259784  0.259784  0.259784  1
  O  O7  1  0.247704  0.247704  0.710092  1
  O  O8  1  0.247704  0.710092  0.247704  1
  O  O9  1  0.710092  0.247704  0.247704  1
  O  O10  1  0.294133  0.748933  0.748933  1
  O  O11  1  0.748933  0.294133  0.748933  1
  O  O12  1  0.748933  0.748933  0.294133  1
  O  O13  1  0.739523  0.739523  0.739523  1
