# generated using pymatgen
data_Li6VNi3(PO4)6
_symmetry_space_group_name_H-M   'P 1'
_cell_length_a   8.61594675
_cell_length_b   8.66542763
_cell_length_c   8.67128886
_cell_angle_alpha   60.82254272
_cell_angle_beta   60.61360974
_cell_angle_gamma   60.98532853
_symmetry_Int_Tables_number   1
_chemical_formula_structural   Li6VNi3(PO4)6
_chemical_formula_sum   'Li6 V1 Ni3 P6 O24'
_cell_volume   466.10936159
_cell_formula_units_Z   1
loop_
 _symmetry_equiv_pos_site_id
 _symmetry_equiv_pos_as_xyz
  1  'x, y, z'
loop_
 _atom_site_type_symbol
 _atom_site_label
 _atom_site_symmetry_multiplicity
 _atom_site_fract_x
 _atom_site_fract_y
 _atom_site_fract_z
 _atom_site_occupancy
  Li  Li0  1  0.028470  0.018887  0.005781  1
  Li  Li1  1  0.747557  0.158186  0.351723  1
  Li  Li2  1  0.479071  0.503917  0.489476  1
  Li  Li3  1  0.297290  0.851218  0.641440  1
  Li  Li4  1  0.645927  0.302157  0.844280  1
  Li  Li5  1  0.848319  0.643748  0.298947  1
  V  V6  1  0.851057  0.850464  0.852918  1
  Ni  Ni7  1  0.142963  0.146695  0.141756  1
  Ni  Ni8  1  0.357379  0.361560  0.353942  1
  Ni  Ni9  1  0.644930  0.647766  0.646535  1
  P  P10  1  0.045310  0.748686  0.449417  1
  P  P11  1  0.451492  0.044023  0.747301  1
  P  P12  1  0.748184  0.451705  0.042074  1
  P  P13  1  0.242267  0.544617  0.958429  1
  P  P14  1  0.546126  0.962587  0.245709  1
  P  P15  1  0.956417  0.242482  0.538082  1
  O  O16  1  0.136043  0.258934  0.510933  1
  O  O17  1  0.266617  0.528018  0.128272  1
  O  O18  1  0.047687  0.921336  0.270780  1
  O  O19  1  0.551593  0.121210  0.273541  1
  O  O20  1  0.232828  0.593307  0.449615  1
  O  O21  1  0.979234  0.815024  0.621850  1
  O  O22  1  0.265795  0.074207  0.905459  1
  O  O23  1  0.481991  0.219603  0.577461  1
  O  O24  1  0.592900  0.451004  0.233437  1
  O  O25  1  0.185736  0.388683  0.989069  1
  O  O26  1  0.089193  0.745025  0.903217  1
  O  O27  1  0.379721  0.009433  0.197076  1
  O  O28  1  0.621985  0.971538  0.820874  1
  O  O29  1  0.905046  0.262124  0.067971  1
  O  O30  1  0.819901  0.618672  0.979419  1
  O  O31  1  0.415572  0.553883  0.773221  1
  O  O32  1  0.555661  0.775158  0.414917  1
  O  O33  1  0.743084  0.904791  0.086136  1
  O  O34  1  0.964995  0.195604  0.384733  1
  O  O35  1  0.775021  0.416345  0.557126  1
  O  O36  1  0.474118  0.888875  0.692661  1
  O  O37  1  0.905463  0.087223  0.738968  1
  O  O38  1  0.686834  0.481728  0.889187  1
  O  O39  1  0.890222  0.688571  0.477268  1
