# generated using pymatgen
data_LiCr2(PO4)2
_symmetry_space_group_name_H-M   'P 1'
_cell_length_a   8.09824960
_cell_length_b   9.29869166
_cell_length_c   5.15906136
_cell_angle_alpha   91.25503295
_cell_angle_beta   90.00000000
_cell_angle_gamma   90.00000000
_symmetry_Int_Tables_number   1
_chemical_formula_structural   LiCr2(PO4)2
_chemical_formula_sum   'Li2 Cr4 P4 O16'
_cell_volume   388.40025049
_cell_formula_units_Z   2
loop_
 _symmetry_equiv_pos_site_id
 _symmetry_equiv_pos_as_xyz
  1  'x, y, z'
loop_
 _atom_site_type_symbol
 _atom_site_label
 _atom_site_symmetry_multiplicity
 _atom_site_fract_x
 _atom_site_fract_y
 _atom_site_fract_z
 _atom_site_occupancy
  Li  Li0  1  0.554010  0.896561  0.936740  1
  Li  Li1  1  0.945990  0.396561  0.436740  1
  Cr  Cr2  1  0.166947  0.022936  0.984847  1
  Cr  Cr3  1  0.333053  0.522936  0.484847  1
  Cr  Cr4  1  0.663650  0.470592  0.986931  1
  Cr  Cr5  1  0.836350  0.970592  0.486931  1
  P  P6  1  0.226562  0.854957  0.563681  1
  P  P7  1  0.273438  0.354957  0.063681  1
  P  P8  1  0.707336  0.641647  0.559389  1
  P  P9  1  0.792664  0.141647  0.059389  1
  O  O10  1  0.058819  0.927454  0.666552  1
  O  O11  1  0.153086  0.440741  0.250200  1
  O  O12  1  0.216965  0.694977  0.625183  1
  O  O13  1  0.244960  0.381187  0.777413  1
  O  O14  1  0.255040  0.881187  0.277413  1
  O  O15  1  0.283035  0.194977  0.125183  1
  O  O16  1  0.346914  0.940741  0.750200  1
  O  O17  1  0.441181  0.427454  0.166552  1
  O  O18  1  0.538728  0.578571  0.675781  1
  O  O19  1  0.669728  0.035249  0.190224  1
  O  O20  1  0.717018  0.799866  0.665913  1
  O  O21  1  0.788142  0.135762  0.760436  1
  O  O22  1  0.711858  0.635762  0.260436  1
  O  O23  1  0.782982  0.299866  0.165913  1
  O  O24  1  0.830272  0.535249  0.690224  1
  O  O25  1  0.961272  0.078571  0.175781  1
