# generated using pymatgen
data_Li2Ti2VO6
_symmetry_space_group_name_H-M   'P 1'
_cell_length_a   6.71013083
_cell_length_b   6.76629014
_cell_length_c   8.52215380
_cell_angle_alpha   71.06125613
_cell_angle_beta   109.24229587
_cell_angle_gamma   96.93391568
_symmetry_Int_Tables_number   1
_chemical_formula_structural   Li2Ti2VO6
_chemical_formula_sum   'Li6 Ti6 V3 O18'
_cell_volume   345.49549904
_cell_formula_units_Z   3
loop_
 _symmetry_equiv_pos_site_id
 _symmetry_equiv_pos_as_xyz
  1  'x, y, z'
loop_
 _atom_site_type_symbol
 _atom_site_label
 _atom_site_symmetry_multiplicity
 _atom_site_fract_x
 _atom_site_fract_y
 _atom_site_fract_z
 _atom_site_occupancy
  Li  Li0  1  0.005163  0.668417  0.837081  1
  Li  Li1  1  0.006127  0.338538  0.170290  1
  Li  Li2  1  0.330219  0.330559  0.501031  1
  Li  Li3  1  0.336448  0.002774  0.832303  1
  Li  Li4  1  0.661503  0.664916  0.496253  1
  Li  Li5  1  0.660539  0.994795  0.163043  1
  Ti  Ti6  1  0.014195  0.671741  0.339446  1
  Ti  Ti7  1  0.009019  0.334300  0.671130  1
  Ti  Ti8  1  0.657648  0.999034  0.662203  1
  Ti  Ti9  1  0.652471  0.661592  0.993887  1
  Ti  Ti10  1  0.016035  0.002518  0.005875  1
  Ti  Ti11  1  0.650632  0.330815  0.327458  1
  V  V12  1  0.333333  0.666667  0.666667  1
  V  V13  1  0.340143  0.338958  0.000794  1
  V  V14  1  0.326524  0.994375  0.332539  1
  O  O15  1  0.351177  0.667362  0.913948  1
  O  O16  1  0.678657  0.972397  0.913673  1
  O  O17  1  0.315334  0.012107  0.076439  1
  O  O18  1  0.315489  0.665971  0.419386  1
  O  O19  1  0.304467  0.333800  0.742333  1
  O  O20  1  0.670081  0.692015  0.755505  1
  O  O21  1  0.351333  0.321226  0.256894  1
  O  O22  1  0.362199  0.999534  0.591000  1
  O  O23  1  0.685829  0.646825  0.245995  1
  O  O24  1  0.681560  0.315100  0.571219  1
  O  O25  1  0.993584  0.984139  0.233842  1
  O  O26  1  0.996585  0.641318  0.577828  1
  O  O27  1  0.009767  0.316977  0.910057  1
  O  O28  1  0.673083  0.349195  0.099492  1
  O  O29  1  0.656899  0.016356  0.423276  1
  O  O30  1  0.980838  0.686508  0.087338  1
  O  O31  1  0.988010  0.360936  0.419660  1
  O  O32  1  0.985107  0.018234  0.762114  1
