# generated using pymatgen
data_Li14MgCo13O28
_symmetry_space_group_name_H-M   'P 1'
_cell_length_a   8.07944515
_cell_length_b   8.56664706
_cell_length_c   7.53255769
_cell_angle_alpha   104.55279721
_cell_angle_beta   105.44522326
_cell_angle_gamma   103.15831124
_symmetry_Int_Tables_number   1
_chemical_formula_structural   Li14MgCo13O28
_chemical_formula_sum   'Li14 Mg1 Co13 O28'
_cell_volume   461.52570044
_cell_formula_units_Z   1
loop_
 _symmetry_equiv_pos_site_id
 _symmetry_equiv_pos_as_xyz
  1  'x, y, z'
loop_
 _atom_site_type_symbol
 _atom_site_label
 _atom_site_symmetry_multiplicity
 _atom_site_fract_x
 _atom_site_fract_y
 _atom_site_fract_z
 _atom_site_occupancy
  Li  Li0  1  0.286436  0.215120  0.930195  1
  Li  Li1  1  0.071474  0.428365  0.856597  1
  Li  Li2  1  0.428963  0.072947  0.642014  1
  Li  Li3  1  0.856661  0.642815  0.785313  1
  Li  Li4  1  0.214773  0.285874  0.571389  1
  Li  Li5  1  0.357362  0.143283  0.286289  1
  Li  Li6  1  0.000000  0.500000  0.500000  1
  Li  Li7  1  0.642638  0.856717  0.713711  1
  Li  Li8  1  0.143339  0.357185  0.214687  1
  Li  Li9  1  0.785227  0.714126  0.428611  1
  Li  Li10  1  0.500000  0.000000  0.000000  1
  Li  Li11  1  0.571037  0.927053  0.357986  1
  Li  Li12  1  0.928526  0.571635  0.143403  1
  Li  Li13  1  0.713564  0.784880  0.069805  1
  Mg  Mg14  1  0.500000  0.500000  0.500000  1
  Co  Co15  1  0.785754  0.214205  0.928319  1
  Co  Co16  1  0.928323  0.070925  0.642798  1
  Co  Co17  1  0.571386  0.428506  0.857032  1
  Co  Co18  1  0.357167  0.642895  0.785274  1
  Co  Co19  1  0.714417  0.285792  0.571514  1
  Co  Co20  1  0.142563  0.857018  0.714136  1
  Co  Co21  1  0.857437  0.142982  0.285864  1
  Co  Co22  1  0.642833  0.357105  0.214726  1
  Co  Co23  1  0.000000  0.000000  0.000000  1
  Co  Co24  1  0.285583  0.714208  0.428486  1
  Co  Co25  1  0.428614  0.571494  0.142968  1
  Co  Co26  1  0.071677  0.929075  0.357202  1
  Co  Co27  1  0.214246  0.785795  0.071681  1
  O  O28  1  0.554812  0.230553  0.938906  1
  O  O29  1  0.017550  0.197953  0.918374  1
  O  O30  1  0.339300  0.445178  0.866214  1
  O  O31  1  0.160448  0.055010  0.633564  1
  O  O32  1  0.697260  0.087814  0.653202  1
  O  O33  1  0.804073  0.412559  0.847839  1
  O  O34  1  0.594624  0.633704  0.790979  1
  O  O35  1  0.232057  0.983178  0.989997  1
  O  O36  1  0.480896  0.291135  0.585410  1
  O  O37  1  0.125548  0.659978  0.796902  1
  O  O38  1  0.946350  0.268076  0.562012  1
  O  O39  1  0.089588  0.127242  0.275895  1
  O  O40  1  0.374919  0.841468  0.704519  1
  O  O41  1  0.745122  0.483188  0.490121  1
  O  O42  1  0.254878  0.516812  0.509879  1
  O  O43  1  0.910412  0.872758  0.724105  1
  O  O44  1  0.625081  0.158532  0.295481  1
  O  O45  1  0.053650  0.731924  0.437988  1
  O  O46  1  0.519104  0.708865  0.414590  1
  O  O47  1  0.767943  0.016822  0.010003  1
  O  O48  1  0.405376  0.366296  0.209021  1
  O  O49  1  0.874452  0.340022  0.203098  1
  O  O50  1  0.302740  0.912186  0.346798  1
  O  O51  1  0.839552  0.944990  0.366436  1
  O  O52  1  0.195927  0.587441  0.152161  1
  O  O53  1  0.660700  0.554822  0.133786  1
  O  O54  1  0.445188  0.769447  0.061094  1
  O  O55  1  0.982450  0.802047  0.081626  1
