# generated using pymatgen
data_Fe5P3O13
_symmetry_space_group_name_H-M   'P 1'
_cell_length_a   6.32220497
_cell_length_b   8.54713665
_cell_length_c   9.82254032
_cell_angle_alpha   94.72565487
_cell_angle_beta   89.99193583
_cell_angle_gamma   90.06228605
_symmetry_Int_Tables_number   1
_chemical_formula_structural   Fe5P3O13
_chemical_formula_sum   'Fe10 P6 O26'
_cell_volume   528.97351196
_cell_formula_units_Z   2
loop_
 _symmetry_equiv_pos_site_id
 _symmetry_equiv_pos_as_xyz
  1  'x, y, z'
loop_
 _atom_site_type_symbol
 _atom_site_label
 _atom_site_symmetry_multiplicity
 _atom_site_fract_x
 _atom_site_fract_y
 _atom_site_fract_z
 _atom_site_occupancy
  Fe  Fe0  1  0.999879  0.114834  0.766564  1
  Fe  Fe1  1  0.252408  0.845359  0.907369  1
  Fe  Fe2  1  0.248642  0.767581  0.556777  1
  Fe  Fe3  1  0.248592  0.585892  0.116280  1
  Fe  Fe4  1  0.504806  0.114137  0.764565  1
  Fe  Fe5  1  0.495194  0.885863  0.235435  1
  Fe  Fe6  1  0.751408  0.414108  0.883720  1
  Fe  Fe7  1  0.751358  0.232419  0.443223  1
  Fe  Fe8  1  0.747592  0.154641  0.092630  1
  Fe  Fe9  1  0.000121  0.885165  0.233436  1
  P  P10  1  0.252984  0.478002  0.776673  1
  P  P11  1  0.249901  0.110314  0.480046  1
  P  P12  1  0.248820  0.181563  0.084076  1
  P  P13  1  0.751180  0.818437  0.915924  1
  P  P14  1  0.750099  0.889686  0.519954  1
  P  P15  1  0.747016  0.521998  0.223327  1
  O  O16  1  0.046329  0.374720  0.784691  1
  O  O17  1  0.054713  0.208228  0.461212  1
  O  O18  1  0.047993  0.117212  0.151034  1
  O  O19  1  0.252774  0.119349  0.929232  1
  O  O20  1  0.249377  0.050121  0.631140  1
  O  O21  1  0.254783  0.594389  0.910039  1
  O  O22  1  0.253943  0.567163  0.650394  1
  O  O23  1  0.248011  0.808323  0.110415  1
  O  O24  1  0.247587  0.952258  0.383140  1
  O  O25  1  0.246691  0.362448  0.101047  1
  O  O26  1  0.448852  0.204686  0.462043  1
  O  O27  1  0.458376  0.373298  0.783949  1
  O  O28  1  0.448180  0.119024  0.154111  1
  O  O29  1  0.551820  0.880976  0.845889  1
  O  O30  1  0.541624  0.626702  0.216051  1
  O  O31  1  0.551148  0.795314  0.537957  1
  O  O32  1  0.753309  0.637552  0.898953  1
  O  O33  1  0.752413  0.047742  0.616860  1
  O  O34  1  0.751989  0.191677  0.889585  1
  O  O35  1  0.746057  0.432837  0.349606  1
  O  O36  1  0.745217  0.405611  0.089961  1
  O  O37  1  0.750623  0.949879  0.368860  1
  O  O38  1  0.747226  0.880651  0.070768  1
  O  O39  1  0.952007  0.882788  0.848966  1
  O  O40  1  0.945287  0.791772  0.538788  1
  O  O41  1  0.953671  0.625280  0.215309  1
