# generated using pymatgen
data_LiCr2(PO4)2
_symmetry_space_group_name_H-M   'P 1'
_cell_length_a   9.33893479
_cell_length_b   5.53436987
_cell_length_c   6.40889985
_cell_angle_alpha   101.72383174
_cell_angle_beta   106.43596013
_cell_angle_gamma   82.82837680
_symmetry_Int_Tables_number   1
_chemical_formula_structural   LiCr2(PO4)2
_chemical_formula_sum   'Li2 Cr4 P4 O16'
_cell_volume   310.28005982
_cell_formula_units_Z   2
loop_
 _symmetry_equiv_pos_site_id
 _symmetry_equiv_pos_as_xyz
  1  'x, y, z'
loop_
 _atom_site_type_symbol
 _atom_site_label
 _atom_site_symmetry_multiplicity
 _atom_site_fract_x
 _atom_site_fract_y
 _atom_site_fract_z
 _atom_site_occupancy
  Li  Li0  1  0.382831  0.182812  0.117517  1
  Li  Li1  1  0.617169  0.817188  0.882483  1
  Cr  Cr2  1  0.083497  0.314791  0.336268  1
  Cr  Cr3  1  0.288437  0.867893  0.551351  1
  Cr  Cr4  1  0.711563  0.132107  0.448649  1
  Cr  Cr5  1  0.916503  0.685209  0.663732  1
  P  P6  1  0.050322  0.194669  0.790254  1
  P  P7  1  0.423600  0.315250  0.661392  1
  P  P8  1  0.576400  0.684750  0.338608  1
  P  P9  1  0.949678  0.805331  0.209746  1
  O  O10  1  0.078806  0.390694  0.664833  1
  O  O11  1  0.125931  0.940824  0.705923  1
  O  O12  1  0.120749  0.828011  0.263674  1
  O  O13  1  0.122898  0.272298  0.036906  1
  O  O14  1  0.421471  0.120506  0.810287  1
  O  O15  1  0.311987  0.190422  0.437163  1
  O  O16  1  0.369415  0.583407  0.739062  1
  O  O17  1  0.418936  0.688648  0.366144  1
  O  O18  1  0.581064  0.311352  0.633856  1
  O  O19  1  0.630585  0.416593  0.260938  1
  O  O20  1  0.688013  0.809578  0.562837  1
  O  O21  1  0.578529  0.879494  0.189713  1
  O  O22  1  0.877102  0.727702  0.963094  1
  O  O23  1  0.879251  0.171989  0.736326  1
  O  O24  1  0.874069  0.059176  0.294077  1
  O  O25  1  0.921194  0.609306  0.335167  1
