# generated using pymatgen
data_Li3CuP2O7
_symmetry_space_group_name_H-M   'P 1'
_cell_length_a   5.15523805
_cell_length_b   7.90351217
_cell_length_c   9.01740630
_cell_angle_alpha   111.44016640
_cell_angle_beta   92.30109845
_cell_angle_gamma   70.59967898
_symmetry_Int_Tables_number   1
_chemical_formula_structural   Li3CuP2O7
_chemical_formula_sum   'Li6 Cu2 P4 O14'
_cell_volume   321.18231436
_cell_formula_units_Z   2
loop_
 _symmetry_equiv_pos_site_id
 _symmetry_equiv_pos_as_xyz
  1  'x, y, z'
loop_
 _atom_site_type_symbol
 _atom_site_label
 _atom_site_symmetry_multiplicity
 _atom_site_fract_x
 _atom_site_fract_y
 _atom_site_fract_z
 _atom_site_occupancy
  Li  Li0  1  0.196768  0.863946  0.546062  1
  Li  Li1  1  0.524330  0.133341  0.974073  1
  Li  Li2  1  0.828013  0.186553  0.801704  1
  Li  Li3  1  0.171991  0.813442  0.198296  1
  Li  Li4  1  0.475670  0.866660  0.025928  1
  Li  Li5  1  0.803232  0.136054  0.453939  1
  Cu  Cu6  1  0.500002  0.499996  0.499996  1
  Cu  Cu7  1  0.499996  0.499997  0.999997  1
  P  P8  1  0.029207  0.717431  0.820106  1
  P  P9  1  0.246123  0.287180  0.680332  1
  P  P10  1  0.753877  0.712820  0.319670  1
  P  P11  1  0.970794  0.282569  0.179894  1
  O  O12  1  0.209914  0.726475  0.964428  1
  O  O13  1  0.735452  0.857067  0.877851  1
  O  O14  1  0.163145  0.737305  0.683324  1
  O  O15  1  0.421782  0.253759  0.816166  1
  O  O16  1  0.008212  0.499737  0.756302  1
  O  O17  1  0.577461  0.720911  0.455736  1
  O  O18  1  0.073328  0.151742  0.629859  1
  O  O19  1  0.926672  0.848258  0.370142  1
  O  O20  1  0.422539  0.279089  0.544264  1
  O  O21  1  0.991788  0.500263  0.243698  1
  O  O22  1  0.578219  0.746242  0.183833  1
  O  O23  1  0.836855  0.262695  0.316678  1
  O  O24  1  0.264549  0.142933  0.122150  1
  O  O25  1  0.790087  0.273525  0.035572  1
