# generated using pymatgen
data_Li2CoPO4F
_symmetry_space_group_name_H-M   'P 1'
_cell_length_a   5.13051462
_cell_length_b   12.97056858
_cell_length_c   11.36874285
_cell_angle_alpha   90.00000000
_cell_angle_beta   90.00000000
_cell_angle_gamma   90.00000000
_symmetry_Int_Tables_number   1
_chemical_formula_structural   Li2CoPO4F
_chemical_formula_sum   'Li16 Co8 P8 O32 F8'
_cell_volume   756.54085705
_cell_formula_units_Z   8
loop_
 _symmetry_equiv_pos_site_id
 _symmetry_equiv_pos_as_xyz
  1  'x, y, z'
loop_
 _atom_site_type_symbol
 _atom_site_label
 _atom_site_symmetry_multiplicity
 _atom_site_fract_x
 _atom_site_fract_y
 _atom_site_fract_z
 _atom_site_occupancy
  Li  Li0  1  0.223561  0.240645  0.178412  1
  Li  Li1  1  0.223561  0.759355  0.678412  1
  Li  Li2  1  0.234318  0.630806  0.399297  1
  Li  Li3  1  0.234318  0.369194  0.899297  1
  Li  Li4  1  0.265682  0.130806  0.399297  1
  Li  Li5  1  0.265682  0.869194  0.899297  1
  Li  Li6  1  0.276439  0.259355  0.678412  1
  Li  Li7  1  0.276439  0.740645  0.178412  1
  Li  Li8  1  0.723561  0.259355  0.821588  1
  Li  Li9  1  0.723561  0.740645  0.321588  1
  Li  Li10  1  0.734318  0.130806  0.100703  1
  Li  Li11  1  0.734318  0.869194  0.600703  1
  Li  Li12  1  0.765682  0.369194  0.600703  1
  Li  Li13  1  0.765682  0.630806  0.100703  1
  Li  Li14  1  0.776439  0.240645  0.321588  1
  Li  Li15  1  0.776439  0.759355  0.821588  1
  Co  Co16  1  0.217523  0.489877  0.669357  1
  Co  Co17  1  0.217523  0.510123  0.169357  1
  Co  Co18  1  0.282477  0.010123  0.169357  1
  Co  Co19  1  0.282477  0.989877  0.669357  1
  Co  Co20  1  0.717523  0.010123  0.330643  1
  Co  Co21  1  0.717523  0.989877  0.830643  1
  Co  Co22  1  0.782477  0.510123  0.330643  1
  Co  Co23  1  0.782477  0.489877  0.830643  1
  P  P24  1  0.205846  0.126712  0.913783  1
  P  P25  1  0.205846  0.873288  0.413783  1
  P  P26  1  0.294154  0.373288  0.413783  1
  P  P27  1  0.294154  0.626712  0.913783  1
  P  P28  1  0.705846  0.373288  0.086217  1
  P  P29  1  0.705846  0.626712  0.586217  1
  P  P30  1  0.794154  0.126712  0.586217  1
  P  P31  1  0.794154  0.873288  0.086217  1
  O  O32  1  0.098574  0.118342  0.600068  1
  O  O33  1  0.098574  0.881658  0.100068  1
  O  O34  1  0.169819  0.470633  0.353394  1
  O  O35  1  0.169819  0.529367  0.853394  1
  O  O36  1  0.185135  0.275389  0.357054  1
  O  O37  1  0.185135  0.724611  0.857054  1
  O  O38  1  0.220511  0.624735  0.046454  1
  O  O39  1  0.220511  0.375265  0.546454  1
  O  O40  1  0.279489  0.124735  0.046454  1
  O  O41  1  0.279489  0.875265  0.546454  1
  O  O42  1  0.314865  0.224611  0.857054  1
  O  O43  1  0.314865  0.775389  0.357054  1
  O  O44  1  0.330181  0.970633  0.353394  1
  O  O45  1  0.330181  0.029367  0.853394  1
  O  O46  1  0.401426  0.618342  0.600068  1
  O  O47  1  0.401426  0.381658  0.100068  1
  O  O48  1  0.598574  0.618342  0.899932  1
  O  O49  1  0.598574  0.381658  0.399932  1
  O  O50  1  0.669819  0.029367  0.646606  1
  O  O51  1  0.669819  0.970633  0.146606  1
  O  O52  1  0.685135  0.224611  0.642946  1
  O  O53  1  0.685135  0.775389  0.142946  1
  O  O54  1  0.720511  0.124735  0.453546  1
  O  O55  1  0.720511  0.875265  0.953546  1
  O  O56  1  0.779489  0.375265  0.953546  1
  O  O57  1  0.779489  0.624735  0.453546  1
  O  O58  1  0.814865  0.275389  0.142946  1
  O  O59  1  0.814865  0.724611  0.642946  1
  O  O60  1  0.830181  0.470633  0.146606  1
  O  O61  1  0.830181  0.529367  0.646606  1
  O  O62  1  0.901426  0.118342  0.899932  1
  O  O63  1  0.901426  0.881658  0.399932  1
  F  F64  1  0.000000  0.100338  0.250000  1
  F  F65  1  0.000000  0.638266  0.250000  1
  F  F66  1  0.000000  0.361734  0.750000  1
  F  F67  1  0.000000  0.899662  0.750000  1
  F  F68  1  0.500000  0.600338  0.250000  1
  F  F69  1  0.500000  0.138266  0.250000  1
  F  F70  1  0.500000  0.399662  0.750000  1
  F  F71  1  0.500000  0.861734  0.750000  1
