# generated using pymatgen
data_V6O5F19
_symmetry_space_group_name_H-M   'P 1'
_cell_length_a   5.55645260
_cell_length_b   5.39191645
_cell_length_c   14.85956233
_cell_angle_alpha   89.48299932
_cell_angle_beta   100.64274025
_cell_angle_gamma   92.89731295
_symmetry_Int_Tables_number   1
_chemical_formula_structural   V6O5F19
_chemical_formula_sum   'V6 O5 F19'
_cell_volume   436.97386529
_cell_formula_units_Z   1
loop_
 _symmetry_equiv_pos_site_id
 _symmetry_equiv_pos_as_xyz
  1  'x, y, z'
loop_
 _atom_site_type_symbol
 _atom_site_label
 _atom_site_symmetry_multiplicity
 _atom_site_fract_x
 _atom_site_fract_y
 _atom_site_fract_z
 _atom_site_occupancy
  V  V0  1  0.046523  0.965020  0.003782  1
  V  V1  1  0.139797  0.562189  0.339256  1
  V  V2  1  0.275251  0.037614  0.662550  1
  V  V3  1  0.535036  0.457277  0.996429  1
  V  V4  1  0.679833  0.054195  0.327536  1
  V  V5  1  0.818221  0.511791  0.668061  1
  O  O6  1  0.034294  0.205080  0.642336  1
  O  O7  1  0.699916  0.232041  0.979320  1
  O  O8  1  0.279598  0.794811  0.021045  1
  O  O9  1  0.875879  0.285666  0.312576  1
  O  O10  1  0.962489  0.784020  0.356944  1
  F  F11  1  0.212944  0.273605  0.972764  1
  F  F12  1  0.130285  0.722779  0.691204  1
  F  F13  1  0.043126  0.090389  0.113637  1
  F  F14  1  0.215659  0.402575  0.445177  1
  F  F15  1  0.392173  0.074047  0.780410  1
  F  F16  1  0.115927  0.558406  0.218927  1
  F  F17  1  0.304563  0.910729  0.556066  1
  F  F18  1  0.452574  0.592885  0.886549  1
  F  F19  1  0.394303  0.203665  0.306980  1
  F  F20  1  0.514814  0.298431  0.642638  1
  F  F21  1  0.447046  0.713425  0.355717  1
  F  F22  1  0.656224  0.782397  0.692237  1
  F  F23  1  0.521488  0.433862  0.114591  1
  F  F24  1  0.713001  0.049972  0.448134  1
  F  F25  1  0.889281  0.399407  0.781561  1
  F  F26  1  0.627360  0.899777  0.220512  1
  F  F27  1  0.803426  0.563407  0.549435  1
  F  F28  1  0.923030  0.926162  0.885749  1
  F  F29  1  0.795941  0.714376  0.027879  1
