# generated using pymatgen
data_Li3Co4TeO8
_symmetry_space_group_name_H-M   'P 1'
_cell_length_a   10.59440719
_cell_length_b   10.59440690
_cell_length_c   14.87482205
_cell_angle_alpha   19.59917233
_cell_angle_beta   19.59917070
_cell_angle_gamma   33.88932891
_symmetry_Int_Tables_number   1
_chemical_formula_structural   Li3Co4TeO8
_chemical_formula_sum   'Li3 Co4 Te1 O8'
_cell_volume   161.60962115
_cell_formula_units_Z   1
loop_
 _symmetry_equiv_pos_site_id
 _symmetry_equiv_pos_as_xyz
  1  'x, y, z'
loop_
 _atom_site_type_symbol
 _atom_site_label
 _atom_site_symmetry_multiplicity
 _atom_site_fract_x
 _atom_site_fract_y
 _atom_site_fract_z
 _atom_site_occupancy
  Li  Li0  1  0.000000  0.500000  0.500000  1
  Li  Li1  1  0.500000  0.000000  0.500000  1
  Li  Li2  1  0.500000  0.500000  0.500000  1
  Co  Co3  1  0.000000  0.000000  0.000000  1
  Co  Co4  1  0.000000  0.500000  0.000000  1
  Co  Co5  1  0.500000  0.000000  0.000000  1
  Co  Co6  1  0.000000  0.000000  0.500000  1
  Te  Te7  1  0.500000  0.500000  0.000000  1
  O  O8  1  0.996294  0.996294  0.258954  1
  O  O9  1  0.024982  0.504720  0.232797  1
  O  O10  1  0.504720  0.024982  0.232797  1
  O  O11  1  0.003706  0.003706  0.741046  1
  O  O12  1  0.518831  0.518831  0.231379  1
  O  O13  1  0.975018  0.495280  0.767203  1
  O  O14  1  0.495280  0.975018  0.767203  1
  O  O15  1  0.481169  0.481169  0.768621  1
