# generated using pymatgen
data_Li2MnBO4
_symmetry_space_group_name_H-M   'P 1'
_cell_length_a   6.02104244
_cell_length_b   10.23356382
_cell_length_c   4.96999047
_cell_angle_alpha   90.00000000
_cell_angle_beta   90.00000000
_cell_angle_gamma   90.00000000
_symmetry_Int_Tables_number   1
_chemical_formula_structural   Li2MnBO4
_chemical_formula_sum   'Li8 Mn4 B4 O16'
_cell_volume   306.23452149
_cell_formula_units_Z   4
loop_
 _symmetry_equiv_pos_site_id
 _symmetry_equiv_pos_as_xyz
  1  'x, y, z'
loop_
 _atom_site_type_symbol
 _atom_site_label
 _atom_site_symmetry_multiplicity
 _atom_site_fract_x
 _atom_site_fract_y
 _atom_site_fract_z
 _atom_site_occupancy
  Li  Li0  1  0.992812  0.324445  0.237946  1
  Li  Li1  1  0.992812  0.824445  0.262054  1
  Li  Li2  1  0.507188  0.324445  0.237946  1
  Li  Li3  1  0.507188  0.824445  0.262054  1
  Li  Li4  1  0.492812  0.175555  0.737946  1
  Li  Li5  1  0.492812  0.675555  0.762054  1
  Li  Li6  1  0.007188  0.675555  0.762054  1
  Li  Li7  1  0.007188  0.175555  0.737946  1
  Mn  Mn8  1  0.250000  0.433198  0.830331  1
  Mn  Mn9  1  0.250000  0.933198  0.669669  1
  Mn  Mn10  1  0.750000  0.066802  0.330331  1
  Mn  Mn11  1  0.750000  0.566802  0.169669  1
  B  B12  1  0.250000  0.071983  0.203137  1
  B  B13  1  0.250000  0.571983  0.296863  1
  B  B14  1  0.750000  0.428017  0.703137  1
  B  B15  1  0.750000  0.928017  0.796863  1
  O  O16  1  0.047953  0.138266  0.320809  1
  O  O17  1  0.047953  0.638266  0.179191  1
  O  O18  1  0.250000  0.082056  0.909288  1
  O  O19  1  0.250000  0.430674  0.220399  1
  O  O20  1  0.250000  0.930674  0.279601  1
  O  O21  1  0.250000  0.582056  0.590712  1
  O  O22  1  0.452047  0.138266  0.320809  1
  O  O23  1  0.452047  0.638266  0.179191  1
  O  O24  1  0.547953  0.861734  0.679191  1
  O  O25  1  0.547953  0.361734  0.820809  1
  O  O26  1  0.750000  0.069326  0.720399  1
  O  O27  1  0.750000  0.417944  0.409288  1
  O  O28  1  0.750000  0.569326  0.779601  1
  O  O29  1  0.750000  0.917944  0.090712  1
  O  O30  1  0.952047  0.361734  0.820809  1
  O  O31  1  0.952047  0.861734  0.679191  1
