# generated using pymatgen
data_Li4Co2Si3O10
_symmetry_space_group_name_H-M   'P 1'
_cell_length_a   5.35196796
_cell_length_b   5.35196796
_cell_length_c   17.08257624
_cell_angle_alpha   82.22019639
_cell_angle_beta   97.77980361
_cell_angle_gamma   119.49848487
_symmetry_Int_Tables_number   1
_chemical_formula_structural   Li4Co2Si3O10
_chemical_formula_sum   'Li8 Co4 Si6 O20'
_cell_volume   420.61496103
_cell_formula_units_Z   2
loop_
 _symmetry_equiv_pos_site_id
 _symmetry_equiv_pos_as_xyz
  1  'x, y, z'
loop_
 _atom_site_type_symbol
 _atom_site_label
 _atom_site_symmetry_multiplicity
 _atom_site_fract_x
 _atom_site_fract_y
 _atom_site_fract_z
 _atom_site_occupancy
  Li  Li0  1  0.172346  0.682318  0.947987  1
  Li  Li1  1  0.421168  0.785633  0.769131  1
  Li  Li2  1  0.317682  0.827654  0.447987  1
  Li  Li3  1  0.214367  0.578832  0.269131  1
  Li  Li4  1  0.785633  0.421168  0.730869  1
  Li  Li5  1  0.682318  0.172346  0.552013  1
  Li  Li6  1  0.578832  0.214367  0.230869  1
  Li  Li7  1  0.827654  0.317682  0.052013  1
  Co  Co8  1  0.811271  0.018214  0.913827  1
  Co  Co9  1  0.981786  0.188729  0.413827  1
  Co  Co10  1  0.018214  0.811271  0.586173  1
  Co  Co11  1  0.188729  0.981786  0.086173  1
  Si  Si12  1  0.337081  0.466429  0.597619  1
  Si  Si13  1  0.117089  0.117089  0.750000  1
  Si  Si14  1  0.466429  0.337081  0.902381  1
  Si  Si15  1  0.533571  0.662919  0.097619  1
  Si  Si16  1  0.882911  0.882911  0.250000  1
  Si  Si17  1  0.662919  0.533571  0.402381  1
  O  O18  1  0.080044  0.839057  0.711361  1
  O  O19  1  0.160943  0.919956  0.211361  1
  O  O20  1  0.369536  0.780383  0.564838  1
  O  O21  1  0.449654  0.637747  0.892393  1
  O  O22  1  0.220787  0.412621  0.688273  1
  O  O23  1  0.207745  0.074839  0.952203  1
  O  O24  1  0.074839  0.207745  0.547797  1
  O  O25  1  0.219617  0.630464  0.064838  1
  O  O26  1  0.362253  0.550346  0.392393  1
  O  O27  1  0.412621  0.220787  0.811727  1
  O  O28  1  0.587379  0.779213  0.188273  1
  O  O29  1  0.637747  0.449654  0.607607  1
  O  O30  1  0.780383  0.369536  0.935162  1
  O  O31  1  0.925161  0.792255  0.452203  1
  O  O32  1  0.792255  0.925161  0.047797  1
  O  O33  1  0.779213  0.587379  0.311727  1
  O  O34  1  0.550346  0.362253  0.107607  1
  O  O35  1  0.630464  0.219617  0.435162  1
  O  O36  1  0.839057  0.080044  0.788639  1
  O  O37  1  0.919956  0.160943  0.288639  1
