# generated using pymatgen
data_Li4MnFe3(PO4)4
_symmetry_space_group_name_H-M   'P 1'
_cell_length_a   10.51487508
_cell_length_b   7.73553615
_cell_length_c   7.74525690
_cell_angle_alpha   104.08871271
_cell_angle_beta   89.99998705
_cell_angle_gamma   89.99999621
_symmetry_Int_Tables_number   1
_chemical_formula_structural   Li4MnFe3(PO4)4
_chemical_formula_sum   'Li8 Mn2 Fe6 P8 O32'
_cell_volume   611.03526293
_cell_formula_units_Z   2
loop_
 _symmetry_equiv_pos_site_id
 _symmetry_equiv_pos_as_xyz
  1  'x, y, z'
loop_
 _atom_site_type_symbol
 _atom_site_label
 _atom_site_symmetry_multiplicity
 _atom_site_fract_x
 _atom_site_fract_y
 _atom_site_fract_z
 _atom_site_occupancy
  Li  Li0  1  0.498960  0.249946  0.249536  1
  Li  Li1  1  0.499927  0.749872  0.750417  1
  Li  Li2  1  0.499524  0.999976  0.499734  1
  Li  Li3  1  0.499405  0.499960  0.000061  1
  Li  Li4  1  0.000073  0.249872  0.750417  1
  Li  Li5  1  0.000476  0.499976  0.499734  1
  Li  Li6  1  0.001040  0.749946  0.249536  1
  Li  Li7  1  0.000595  0.999960  0.000060  1
  Mn  Mn8  1  0.782641  0.135317  0.385700  1
  Mn  Mn9  1  0.717359  0.635318  0.385700  1
  Fe  Fe10  1  0.782802  0.636858  0.886723  1
  Fe  Fe11  1  0.717198  0.136857  0.886723  1
  Fe  Fe12  1  0.282519  0.362471  0.612872  1
  Fe  Fe13  1  0.282473  0.862356  0.111926  1
  Fe  Fe14  1  0.217481  0.862471  0.612872  1
  Fe  Fe15  1  0.217527  0.362356  0.111926  1
  P  P16  1  0.906092  0.416392  0.164493  1
  P  P17  1  0.905406  0.916870  0.668811  1
  P  P18  1  0.594594  0.416871  0.668811  1
  P  P19  1  0.593908  0.916391  0.164493  1
  P  P20  1  0.404043  0.083764  0.833664  1
  P  P21  1  0.402988  0.583417  0.333494  1
  P  P22  1  0.095957  0.583763  0.833664  1
  P  P23  1  0.097012  0.083417  0.333494  1
  O  O24  1  0.960139  0.021079  0.271330  1
  O  O25  1  0.958802  0.522035  0.771887  1
  O  O26  1  0.901850  0.253988  0.004987  1
  O  O27  1  0.901807  0.757251  0.506351  1
  O  O28  1  0.835534  0.086411  0.637360  1
  O  O29  1  0.836685  0.384868  0.334076  1
  O  O30  1  0.835375  0.880693  0.836372  1
  O  O31  1  0.836514  0.584646  0.128401  1
  O  O32  1  0.664625  0.380693  0.836372  1
  O  O33  1  0.663486  0.084646  0.128401  1
  O  O34  1  0.663315  0.884868  0.334076  1
  O  O35  1  0.664466  0.586411  0.637360  1
  O  O36  1  0.598193  0.257251  0.506351  1
  O  O37  1  0.598149  0.753988  0.004987  1
  O  O38  1  0.541198  0.022035  0.771887  1
  O  O39  1  0.539861  0.521079  0.271331  1
  O  O40  1  0.456977  0.477705  0.729430  1
  O  O41  1  0.456695  0.978150  0.226373  1
  O  O42  1  0.400825  0.744709  0.494686  1
  O  O43  1  0.400690  0.244951  0.994803  1
  O  O44  1  0.334104  0.118088  0.665030  1
  O  O45  1  0.333237  0.414994  0.368417  1
  O  O46  1  0.334157  0.914963  0.867969  1
  O  O47  1  0.333351  0.618270  0.165095  1
  O  O48  1  0.165896  0.618088  0.665031  1
  O  O49  1  0.166762  0.914994  0.368417  1
  O  O50  1  0.165843  0.414962  0.867969  1
  O  O51  1  0.166649  0.118270  0.165095  1
  O  O52  1  0.099310  0.744952  0.994803  1
  O  O53  1  0.099175  0.244710  0.494686  1
  O  O54  1  0.043023  0.977705  0.729430  1
  O  O55  1  0.043305  0.478150  0.226373  1
