# generated using pymatgen
data_Li2U(WO5)2
_symmetry_space_group_name_H-M   'P 1'
_cell_length_a   7.87308964
_cell_length_b   13.00271743
_cell_length_c   7.62906418
_cell_angle_alpha   90.21078196
_cell_angle_beta   89.51502824
_cell_angle_gamma   90.05512718
_symmetry_Int_Tables_number   1
_chemical_formula_structural   Li2U(WO5)2
_chemical_formula_sum   'Li8 U4 W8 O40'
_cell_volume   780.96560068
_cell_formula_units_Z   4
loop_
 _symmetry_equiv_pos_site_id
 _symmetry_equiv_pos_as_xyz
  1  'x, y, z'
loop_
 _atom_site_type_symbol
 _atom_site_label
 _atom_site_symmetry_multiplicity
 _atom_site_fract_x
 _atom_site_fract_y
 _atom_site_fract_z
 _atom_site_occupancy
  Li  Li0  1  0.027253  0.504073  0.717695  1
  Li  Li1  1  0.162440  0.503634  0.023133  1
  Li  Li2  1  0.311200  0.994903  0.498828  1
  Li  Li3  1  0.499853  0.989037  0.250977  1
  Li  Li4  1  0.500145  0.012771  0.749237  1
  Li  Li5  1  0.687025  0.994240  0.001989  1
  Li  Li6  1  0.828483  0.495762  0.010951  1
  Li  Li7  1  0.844414  0.507451  0.462081  1
  U  U8  1  0.999710  0.018687  0.251157  1
  U  U9  1  0.999692  0.980609  0.749716  1
  U  U10  1  0.493416  0.519668  0.254866  1
  U  U11  1  0.500386  0.480729  0.751998  1
  W  W12  1  0.020843  0.743966  0.498730  1
  W  W13  1  0.024378  0.254405  -0.000049  1
  W  W14  1  0.475550  0.242448  0.501381  1
  W  W15  1  0.478852  0.756704  0.001126  1
  W  W16  1  0.520077  0.757973  0.499694  1
  W  W17  1  0.524393  0.242459  0.000476  1
  W  W18  1  0.975629  0.255707  0.500699  1
  W  W19  1  0.979163  0.742863  0.998215  1
  O  O20  1  0.000180  0.214118  0.250749  1
  O  O21  1  0.000418  0.730375  0.248242  1
  O  O22  1  0.001878  0.258033  0.751045  1
  O  O23  1  0.000005  0.789959  0.749865  1
  O  O24  1  0.004279  0.392688  0.029627  1
  O  O25  1  0.007832  0.901090  0.469394  1
  O  O26  1  0.999549  0.096775  0.973964  1
  O  O27  1  0.988438  0.610299  0.553185  1
  O  O28  1  0.244374  0.751983  0.000955  1
  O  O29  1  0.241483  0.253315  0.497001  1
  O  O30  1  0.236988  0.020574  0.260131  1
  O  O31  1  0.236618  0.977934  0.739325  1
  O  O32  1  0.258953  0.248356  0.000555  1
  O  O33  1  0.254168  0.745229  0.501787  1
  O  O34  1  0.264146  0.479174  0.772592  1
  O  O35  1  0.261029  0.522668  0.247806  1
  O  O36  1  0.499461  0.401823  0.474300  1
  O  O37  1  0.510280  0.891963  0.050634  1
  O  O38  1  0.498347  0.599445  0.970101  1
  O  O39  1  0.477949  0.105875  0.548377  1
  O  O40  1  0.497822  0.711052  0.250741  1
  O  O41  1  0.499901  0.231005  0.250600  1
  O  O42  1  0.500110  0.770507  0.750858  1
  O  O43  1  0.499651  0.287263  0.751367  1
  O  O44  1  0.487045  0.893044  0.451908  1
  O  O45  1  0.519392  0.105773  0.953046  1
  O  O46  1  0.506175  0.599604  0.532809  1
  O  O47  1  0.506283  0.402108  0.030774  1
  O  O48  1  0.730954  0.522378  0.246057  1
  O  O49  1  0.745517  0.746095  0.999251  1
  O  O50  1  0.740396  0.244750  0.501377  1
  O  O51  1  0.738884  0.480350  0.750833  1
  O  O52  1  0.762440  0.020395  0.240328  1
  O  O53  1  0.762630  0.977826  0.761868  1
  O  O54  1  0.758383  0.252340  0.002337  1
  O  O55  1  0.753625  0.756527  0.495074  1
  O  O56  1  0.992268  0.900220  0.030264  1
  O  O57  1  0.998162  0.605353  0.945574  1
  O  O58  1  0.000309  0.095628  0.527318  1
  O  O59  1  0.985669  0.393044  0.478731  1
