# generated using pymatgen
data_LiSn(PO3)4
_symmetry_space_group_name_H-M   'P 1'
_cell_length_a   7.57970945
_cell_length_b   7.59621061
_cell_length_c   10.23179288
_cell_angle_alpha   80.35477682
_cell_angle_beta   71.70126086
_cell_angle_gamma   110.47924347
_symmetry_Int_Tables_number   1
_chemical_formula_structural   LiSn(PO3)4
_chemical_formula_sum   'Li2 Sn2 P8 O24'
_cell_volume   497.84109057
_cell_formula_units_Z   2
loop_
 _symmetry_equiv_pos_site_id
 _symmetry_equiv_pos_as_xyz
  1  'x, y, z'
loop_
 _atom_site_type_symbol
 _atom_site_label
 _atom_site_symmetry_multiplicity
 _atom_site_fract_x
 _atom_site_fract_y
 _atom_site_fract_z
 _atom_site_occupancy
  Li  Li0  1  0.245272  0.998769  0.752191  1
  Li  Li1  1  0.755703  0.998410  0.250840  1
  Sn  Sn2  1  0.998201  0.499353  0.000874  1
  Sn  Sn3  1  0.997442  0.998650  0.500757  1
  P  P4  1  0.996477  0.682856  0.308633  1
  P  P5  1  0.267535  0.726104  0.475758  1
  P  P6  1  0.700249  0.743647  0.023756  1
  P  P7  1  0.505479  0.692589  0.811465  1
  P  P8  1  0.489979  0.305966  0.189601  1
  P  P9  1  0.296732  0.254315  0.978032  1
  P  P10  1  0.734080  0.276167  0.522884  1
  P  P11  1  0.007273  0.320046  0.689505  1
  O  O12  1  0.038189  0.658100  0.161406  1
  O  O13  1  0.132903  0.802067  0.573349  1
  O  O14  1  0.186066  0.685354  0.347998  1
  O  O15  1  0.493319  0.836178  0.408566  1
  O  O16  1  0.307108  0.712350  0.826280  1
  O  O17  1  0.209976  0.503800  0.567440  1
  O  O18  1  0.122713  0.290707  0.076476  1
  O  O19  1  0.741751  0.901643  0.090800  1
  O  O20  1  0.567942  0.775389  0.932449  1
  O  O21  1  0.678263  0.795256  0.664436  1
  O  O22  1  0.529117  0.533151  0.147546  1
  O  O23  1  0.043424  0.138043  0.673236  1
  O  O24  1  0.962319  0.866288  0.323333  1
  O  O25  1  0.462931  0.464721  0.852508  1
  O  O26  1  0.317540  0.199908  0.336425  1
  O  O27  1  0.431242  0.222463  0.067626  1
  O  O28  1  0.256264  0.097723  0.909975  1
  O  O29  1  0.877100  0.708239  0.927873  1
  O  O30  1  0.794223  0.500025  0.431673  1
  O  O31  1  0.690374  0.291255  0.175187  1
  O  O32  1  0.507988  0.168214  0.594415  1
  O  O33  1  0.821782  0.320366  0.646844  1
  O  O34  1  0.863528  0.196913  0.424619  1
  O  O35  1  0.961676  0.342682  0.837576  1
