# generated using pymatgen
data_Mn5Sn(PO4)6
_symmetry_space_group_name_H-M   'P 1'
_cell_length_a   8.69729740
_cell_length_b   8.66504596
_cell_length_c   8.66504579
_cell_angle_alpha   60.00000210
_cell_angle_beta   60.12259261
_cell_angle_gamma   60.12259298
_symmetry_Int_Tables_number   1
_chemical_formula_structural   Mn5Sn(PO4)6
_chemical_formula_sum   'Mn5 Sn1 P6 O24'
_cell_volume   462.60819880
_cell_formula_units_Z   1
loop_
 _symmetry_equiv_pos_site_id
 _symmetry_equiv_pos_as_xyz
  1  'x, y, z'
loop_
 _atom_site_type_symbol
 _atom_site_label
 _atom_site_symmetry_multiplicity
 _atom_site_fract_x
 _atom_site_fract_y
 _atom_site_fract_z
 _atom_site_occupancy
  Mn  Mn0  1  0.008671  0.997109  0.997109  1
  Mn  Mn1  1  0.065634  0.644789  0.644789  1
  Mn  Mn2  1  0.500768  0.499744  0.499744  1
  Mn  Mn3  1  0.435382  0.854873  0.854873  1
  Mn  Mn4  1  0.933194  0.355602  0.355602  1
  Sn  Sn5  1  0.566674  0.144442  0.144442  1
  P  P6  1  0.245388  0.251861  0.548863  1
  P  P7  1  0.245388  0.953889  0.251861  1
  P  P8  1  0.245388  0.548863  0.953889  1
  P  P9  1  0.751302  0.461980  0.040657  1
  P  P10  1  0.751302  0.040657  0.746061  1
  P  P11  1  0.751302  0.746061  0.461980  1
  O  O12  1  0.068477  0.114774  0.303855  1
  O  O13  1  0.068477  0.512895  0.114774  1
  O  O14  1  0.068477  0.303855  0.512895  1
  O  O15  1  0.235990  0.085812  0.740490  1
  O  O16  1  0.430439  0.194838  0.391925  1
  O  O17  1  0.260947  0.416066  0.563332  1
  O  O18  1  0.235990  0.937709  0.085812  1
  O  O19  1  0.260947  0.759654  0.416066  1
  O  O20  1  0.568758  0.615314  0.008887  1
  O  O21  1  0.260947  0.563332  0.759654  1
  O  O22  1  0.768716  0.263835  0.056754  1
  O  O23  1  0.568758  0.008887  0.807040  1
  O  O24  1  0.430439  0.982797  0.194838  1
  O  O25  1  0.235990  0.740490  0.937709  1
  O  O26  1  0.734036  0.443688  0.236754  1
  O  O27  1  0.430439  0.391925  0.982797  1
  O  O28  1  0.734036  0.236754  0.585522  1
  O  O29  1  0.768716  0.056754  0.910696  1
  O  O30  1  0.734036  0.585522  0.443688  1
  O  O31  1  0.568758  0.807040  0.615314  1
  O  O32  1  0.768716  0.910696  0.263835  1
  O  O33  1  0.932505  0.687888  0.494621  1
  O  O34  1  0.932505  0.494621  0.884987  1
  O  O35  1  0.932505  0.884987  0.687888  1
