# generated using pymatgen
data_Li4Co2C4SO16
_symmetry_space_group_name_H-M   'P 1'
_cell_length_a   9.56484310
_cell_length_b   9.22603983
_cell_length_c   9.56484266
_cell_angle_alpha   61.62136789
_cell_angle_beta   94.76559256
_cell_angle_gamma   61.62136748
_symmetry_Int_Tables_number   1
_chemical_formula_structural   Li4Co2C4SO16
_chemical_formula_sum   'Li8 Co4 C8 S2 O32'
_cell_volume   599.07053320
_cell_formula_units_Z   2
loop_
 _symmetry_equiv_pos_site_id
 _symmetry_equiv_pos_as_xyz
  1  'x, y, z'
loop_
 _atom_site_type_symbol
 _atom_site_label
 _atom_site_symmetry_multiplicity
 _atom_site_fract_x
 _atom_site_fract_y
 _atom_site_fract_z
 _atom_site_occupancy
  Li  Li0  1  0.080024  0.839952  0.830024  1
  Li  Li1  1  0.080685  0.250000  0.830685  1
  Li  Li2  1  0.330685  0.750000  0.580685  1
  Li  Li3  1  0.330024  0.339952  0.580024  1
  Li  Li4  1  0.669976  0.660048  0.419976  1
  Li  Li5  1  0.669315  0.250000  0.419315  1
  Li  Li6  1  0.919315  0.750000  0.169315  1
  Li  Li7  1  0.919976  0.160048  0.169976  1
  Co  Co8  1  0.000000  0.500000  0.000000  1
  Co  Co9  1  0.500000  0.000000  0.500000  1
  Co  Co10  1  0.500000  0.500000  0.000000  1
  Co  Co11  1  0.500000  0.000000  0.000000  1
  C  C12  1  0.346075  0.938642  0.769775  1
  C  C13  1  0.269775  0.438642  0.846075  1
  C  C14  1  0.715283  0.938642  0.791582  1
  C  C15  1  0.708418  0.561358  0.784717  1
  C  C16  1  0.291582  0.438642  0.215283  1
  C  C17  1  0.284717  0.061358  0.208418  1
  C  C18  1  0.730225  0.561358  0.153925  1
  C  C19  1  0.653925  0.061358  0.230225  1
  S  S20  1  0.125000  0.750000  0.375000  1
  S  S21  1  0.875000  0.250000  0.625000  1
  O  O22  1  0.339372  0.799162  0.890828  1
  O  O23  1  0.068170  0.885724  0.432959  1
  O  O24  1  0.356719  0.945428  0.633714  1
  O  O25  1  0.133714  0.445428  0.856719  1
  O  O26  1  0.697853  0.945428  0.920858  1
  O  O27  1  0.285453  0.574244  0.838221  1
  O  O28  1  0.046107  0.885724  0.181317  1
  O  O29  1  0.067041  0.614276  0.431830  1
  O  O30  1  0.412465  0.925756  0.359697  1
  O  O31  1  0.579142  0.554572  0.802147  1
  O  O32  1  0.390828  0.299162  0.839372  1
  O  O33  1  0.318683  0.614276  0.453893  1
  O  O34  1  0.861466  0.799162  0.810010  1
  O  O35  1  0.689990  0.700838  0.638534  1
  O  O36  1  0.338221  0.074244  0.785453  1
  O  O37  1  0.140303  0.574244  0.087535  1
  O  O38  1  0.859697  0.425756  0.912465  1
  O  O39  1  0.661779  0.925756  0.214547  1
  O  O40  1  0.310010  0.299162  0.361466  1
  O  O41  1  0.138534  0.200838  0.189990  1
  O  O42  1  0.681317  0.385724  0.546107  1
  O  O43  1  0.609172  0.700838  0.160628  1
  O  O44  1  0.420858  0.445428  0.197853  1
  O  O45  1  0.587535  0.074244  0.640303  1
  O  O46  1  0.932959  0.385724  0.568170  1
  O  O47  1  0.953893  0.114276  0.818683  1
  O  O48  1  0.714547  0.425756  0.161779  1
  O  O49  1  0.302147  0.054572  0.079142  1
  O  O50  1  0.866286  0.554572  0.143281  1
  O  O51  1  0.643281  0.054572  0.366286  1
  O  O52  1  0.931830  0.114276  0.567041  1
  O  O53  1  0.660628  0.200838  0.109172  1
