# generated using pymatgen
data_Li2Fe3CoO8
_symmetry_space_group_name_H-M   'P 1'
_cell_length_a   5.10319584
_cell_length_b   5.98448012
_cell_length_c   5.88946894
_cell_angle_alpha   60.52379823
_cell_angle_beta   90.00000383
_cell_angle_gamma   74.06864727
_symmetry_Int_Tables_number   1
_chemical_formula_structural   Li2Fe3CoO8
_chemical_formula_sum   'Li2 Fe3 Co1 O8'
_cell_volume   148.59579892
_cell_formula_units_Z   1
loop_
 _symmetry_equiv_pos_site_id
 _symmetry_equiv_pos_as_xyz
  1  'x, y, z'
loop_
 _atom_site_type_symbol
 _atom_site_label
 _atom_site_symmetry_multiplicity
 _atom_site_fract_x
 _atom_site_fract_y
 _atom_site_fract_z
 _atom_site_occupancy
  Li  Li0  1  0.000000  0.000000  0.000000  1
  Li  Li1  1  0.000000  0.000000  0.500000  1
  Fe  Fe2  1  0.000000  0.500000  0.500000  1
  Fe  Fe3  1  0.500000  0.500000  0.245923  1
  Fe  Fe4  1  0.500000  0.500000  0.754077  1
  Co  Co5  1  0.000000  0.500000  0.000000  1
  O  O6  1  0.218496  0.294257  0.340909  1
  O  O7  1  0.218496  0.294257  0.864834  1
  O  O8  1  0.244059  0.711916  0.894042  1
  O  O9  1  0.248960  0.714763  0.392618  1
  O  O10  1  0.751040  0.285237  0.607382  1
  O  O11  1  0.755941  0.288084  0.105958  1
  O  O12  1  0.781504  0.705743  0.135166  1
  O  O13  1  0.781504  0.705743  0.659091  1
