# generated using pymatgen
data_Li3Fe3TeO8
_symmetry_space_group_name_H-M   'P 1'
_cell_length_a   10.52751165
_cell_length_b   10.53615099
_cell_length_c   14.86565925
_cell_angle_alpha   20.03448993
_cell_angle_beta   19.74464614
_cell_angle_gamma   34.36213448
_symmetry_Int_Tables_number   1
_chemical_formula_structural   Li3Fe3TeO8
_chemical_formula_sum   'Li3 Fe3 Te1 O8'
_cell_volume   164.40455211
_cell_formula_units_Z   1
loop_
 _symmetry_equiv_pos_site_id
 _symmetry_equiv_pos_as_xyz
  1  'x, y, z'
loop_
 _atom_site_type_symbol
 _atom_site_label
 _atom_site_symmetry_multiplicity
 _atom_site_fract_x
 _atom_site_fract_y
 _atom_site_fract_z
 _atom_site_occupancy
  Li  Li0  1  -0.000041  0.499959  0.500034  1
  Li  Li1  1  0.500088  -0.000001  0.499919  1
  Li  Li2  1  0.499947  0.499990  0.500019  1
  Fe  Fe3  1  0.000204  0.499999  -0.000080  1
  Fe  Fe4  1  0.499716  -0.000088  0.000274  1
  Fe  Fe5  1  0.500184  0.499900  -0.000039  1
  Te  Te6  1  -0.000115  -0.000034  0.000234  1
  O  O7  1  0.998059  0.021121  0.250184  1
  O  O8  1  -0.000280  0.557578  0.220502  1
  O  O9  1  0.536302  -0.016468  0.244564  1
  O  O10  1  0.001900  -0.021183  0.749853  1
  O  O11  1  0.462069  0.447280  0.318496  1
  O  O12  1  0.000292  0.442400  0.779495  1
  O  O13  1  0.463576  0.016545  0.755410  1
  O  O14  1  0.538101  0.553003  0.681134  1
