# generated using pymatgen
data_V(SO4)2
_symmetry_space_group_name_H-M   'P 1'
_cell_length_a   8.89262298
_cell_length_b   8.89262304
_cell_length_c   8.89262291
_cell_angle_alpha   56.19744370
_cell_angle_beta   56.19743925
_cell_angle_gamma   56.19743757
_symmetry_Int_Tables_number   1
_chemical_formula_structural   V(SO4)2
_chemical_formula_sum   'V3 S6 O24'
_cell_volume   453.48443758
_cell_formula_units_Z   3
loop_
 _symmetry_equiv_pos_site_id
 _symmetry_equiv_pos_as_xyz
  1  'x, y, z'
loop_
 _atom_site_type_symbol
 _atom_site_label
 _atom_site_symmetry_multiplicity
 _atom_site_fract_x
 _atom_site_fract_y
 _atom_site_fract_z
 _atom_site_occupancy
  V  V0  1  0.354696  0.354696  0.354696  1
  V  V1  1  0.644349  0.644349  0.644349  1
  V  V2  1  0.852131  0.852131  0.852131  1
  S  S3  1  0.035331  0.745014  0.470039  1
  S  S4  1  0.470039  0.035331  0.745014  1
  S  S5  1  0.745014  0.470039  0.035331  1
  S  S6  1  0.256281  0.529703  0.961010  1
  S  S7  1  0.529703  0.961010  0.256281  1
  S  S8  1  0.961010  0.256281  0.529703  1
  O  O9  1  0.117856  0.294662  0.511146  1
  O  O10  1  0.294662  0.511146  0.117856  1
  O  O11  1  0.008599  0.936619  0.331218  1
  O  O12  1  0.511146  0.117856  0.294662  1
  O  O13  1  0.020987  0.715600  0.659327  1
  O  O14  1  0.226979  0.596070  0.401733  1
  O  O15  1  0.401733  0.226979  0.596070  1
  O  O16  1  0.331218  0.008599  0.936619  1
  O  O17  1  0.596070  0.401733  0.226979  1
  O  O18  1  0.059291  0.678512  0.974315  1
  O  O19  1  0.289018  0.350925  0.966578  1
  O  O20  1  0.350925  0.966578  0.289018  1
  O  O21  1  0.659327  0.020987  0.715600  1
  O  O22  1  0.715600  0.659327  0.020987  1
  O  O23  1  0.936619  0.331218  0.008599  1
  O  O24  1  0.397512  0.622853  0.768008  1
  O  O25  1  0.678512  0.974315  0.059291  1
  O  O26  1  0.622853  0.768008  0.397512  1
  O  O27  1  0.768008  0.397512  0.622853  1
  O  O28  1  0.966578  0.289018  0.350925  1
  O  O29  1  0.516493  0.885784  0.673719  1
  O  O30  1  0.974315  0.059291  0.678512  1
  O  O31  1  0.673719  0.516493  0.885784  1
  O  O32  1  0.885784  0.673719  0.516493  1
