# generated using pymatgen
data_Li4V2C4SO16
_symmetry_space_group_name_H-M   'P 1'
_cell_length_a   9.31065278
_cell_length_b   9.31065288
_cell_length_c   9.74807459
_cell_angle_alpha   60.75714304
_cell_angle_beta   60.75713510
_cell_angle_gamma   88.68629281
_symmetry_Int_Tables_number   1
_chemical_formula_structural   Li4V2C4SO16
_chemical_formula_sum   'Li8 V4 C8 S2 O32'
_cell_volume   617.01375328
_cell_formula_units_Z   2
loop_
 _symmetry_equiv_pos_site_id
 _symmetry_equiv_pos_as_xyz
  1  'x, y, z'
loop_
 _atom_site_type_symbol
 _atom_site_label
 _atom_site_symmetry_multiplicity
 _atom_site_fract_x
 _atom_site_fract_y
 _atom_site_fract_z
 _atom_site_occupancy
  Li  Li0  1  0.827717  0.077717  0.250000  1
  Li  Li1  1  0.829140  0.670860  0.250000  1
  Li  Li2  1  0.577717  0.327717  0.750000  1
  Li  Li3  1  0.579140  0.920860  0.750000  1
  Li  Li4  1  0.420860  0.079140  0.250000  1
  Li  Li5  1  0.422283  0.672283  0.250000  1
  Li  Li6  1  0.170860  0.329140  0.750000  1
  Li  Li7  1  0.172283  0.922283  0.750000  1
  V  V8  1  0.500000  0.500000  0.000000  1
  V  V9  1  0.000000  0.000000  0.500000  1
  V  V10  1  0.000000  0.500000  0.500000  1
  V  V11  1  0.000000  0.500000  0.000000  1
  C  C12  1  0.795515  0.345608  0.917792  1
  C  C13  1  0.786693  0.736599  0.917792  1
  C  C14  1  0.845608  0.295515  0.417792  1
  C  C15  1  0.763401  0.713307  0.582208  1
  C  C16  1  0.236599  0.286693  0.417792  1
  C  C17  1  0.154392  0.704485  0.582208  1
  C  C18  1  0.213307  0.263401  0.082208  1
  C  C19  1  0.204485  0.654392  0.082208  1
  S  S20  1  0.625000  0.875000  0.250000  1
  S  S21  1  0.375000  0.125000  0.750000  1
  O  O22  1  0.912700  0.719003  0.940706  1
  O  O23  1  0.923625  0.351439  0.773999  1
  O  O24  1  0.802376  0.874562  0.773999  1
  O  O25  1  0.883325  0.857706  0.460164  1
  O  O26  1  0.843488  0.317870  0.539836  1
  O  O27  1  0.646595  0.340291  0.940706  1
  O  O28  1  0.840291  0.146595  0.440706  1
  O  O29  1  0.780997  0.587300  0.559294  1
  O  O30  1  0.851439  0.423625  0.273998  1
  O  O31  1  0.625438  0.697624  0.726001  1
  O  O32  1  0.817165  0.930581  0.136410  1
  O  O33  1  0.453575  0.066991  0.863590  1
  O  O34  1  0.817870  0.343488  0.039836  1
  O  O35  1  0.357706  0.383325  0.960164  1
  O  O36  1  0.569419  0.682835  0.363590  1
  O  O37  1  0.566991  0.953575  0.363590  1
  O  O38  1  0.433009  0.046425  0.636410  1
  O  O39  1  0.430581  0.317165  0.636410  1
  O  O40  1  0.642294  0.616675  0.039836  1
  O  O41  1  0.182130  0.656512  0.960164  1
  O  O42  1  0.546425  0.933009  0.136410  1
  O  O43  1  0.182835  0.069419  0.863590  1
  O  O44  1  0.374562  0.302376  0.273998  1
  O  O45  1  0.148561  0.576375  0.726001  1
  O  O46  1  0.219003  0.412700  0.440706  1
  O  O47  1  0.159709  0.853405  0.559294  1
  O  O48  1  0.353405  0.659709  0.059294  1
  O  O49  1  0.156512  0.682130  0.460164  1
  O  O50  1  0.116675  0.142294  0.539836  1
  O  O51  1  0.197624  0.125438  0.226002  1
  O  O52  1  0.076375  0.648561  0.226002  1
  O  O53  1  0.087300  0.280997  0.059294  1
