# generated using pymatgen
data_Ti12Fe5O32
_symmetry_space_group_name_H-M   'P 1'
_cell_length_a   8.44218545
_cell_length_b   8.44202041
_cell_length_c   8.44242816
_cell_angle_alpha   90.09125284
_cell_angle_beta   90.08886156
_cell_angle_gamma   90.08731731
_symmetry_Int_Tables_number   1
_chemical_formula_structural   Ti12Fe5O32
_chemical_formula_sum   'Ti12 Fe5 O32'
_cell_volume   601.68208516
_cell_formula_units_Z   1
loop_
 _symmetry_equiv_pos_site_id
 _symmetry_equiv_pos_as_xyz
  1  'x, y, z'
loop_
 _atom_site_type_symbol
 _atom_site_label
 _atom_site_symmetry_multiplicity
 _atom_site_fract_x
 _atom_site_fract_y
 _atom_site_fract_z
 _atom_site_occupancy
  Ti  Ti0  1  0.115620  0.618988  0.149800  1
  Ti  Ti1  1  0.136548  0.365473  0.877964  1
  Ti  Ti2  1  0.149792  0.115622  0.619009  1
  Ti  Ti3  1  0.365473  0.877988  0.136532  1
  Ti  Ti4  1  0.368250  0.644514  0.384713  1
  Ti  Ti5  1  0.384715  0.368241  0.644515  1
  Ti  Ti6  1  0.609745  0.870168  0.854675  1
  Ti  Ti7  1  0.619024  0.149793  0.115631  1
  Ti  Ti8  1  0.644495  0.384712  0.368250  1
  Ti  Ti9  1  0.854688  0.609745  0.870167  1
  Ti  Ti10  1  0.870155  0.854690  0.609747  1
  Ti  Ti11  1  0.877982  0.136531  0.365473  1
  Fe  Fe12  1  0.243569  0.739843  0.755308  1
  Fe  Fe13  1  0.259055  0.259064  0.259065  1
  Fe  Fe14  1  0.739839  0.755291  0.243555  1
  Fe  Fe15  1  0.755285  0.243565  0.739867  1
  Fe  Fe16  1  0.995009  0.995007  0.994972  1
  O  O17  1  0.113732  0.140924  0.387659  1
  O  O18  1  0.111646  0.606273  0.887681  1
  O  O19  1  0.112215  0.890360  0.648250  1
  O  O20  1  0.140933  0.387646  0.113730  1
  O  O21  1  0.107142  0.139769  0.865414  1
  O  O22  1  0.141994  0.618855  0.358586  1
  O  O23  1  0.145005  0.349535  0.648302  1
  O  O24  1  0.139770  0.865441  0.107119  1
  O  O25  1  0.358575  0.141987  0.618874  1
  O  O26  1  0.349512  0.648283  0.145014  1
  O  O27  1  0.356340  0.380679  0.858058  1
  O  O28  1  0.380659  0.858068  0.356310  1
  O  O29  1  0.356558  0.608803  0.611738  1
  O  O30  1  0.387659  0.113749  0.140929  1
  O  O31  1  0.389383  0.389380  0.389389  1
  O  O32  1  0.386798  0.858320  0.885414  1
  O  O33  1  0.611752  0.356558  0.608786  1
  O  O34  1  0.606257  0.887686  0.111662  1
  O  O35  1  0.608787  0.611746  0.356545  1
  O  O36  1  0.648270  0.112207  0.890383  1
  O  O37  1  0.618852  0.358580  0.142008  1
  O  O38  1  0.650221  0.880917  0.646241  1
  O  O39  1  0.648293  0.144991  0.349520  1
  O  O40  1  0.646235  0.650231  0.880913  1
  O  O41  1  0.858050  0.356317  0.380655  1
  O  O42  1  0.865588  0.865611  0.865590  1
  O  O43  1  0.865439  0.107125  0.139757  1
  O  O44  1  0.880915  0.646233  0.650242  1
  O  O45  1  0.858307  0.885396  0.386803  1
  O  O46  1  0.885411  0.386795  0.858314  1
  O  O47  1  0.887679  0.111657  0.606261  1
  O  O48  1  0.890368  0.648253  0.112219  1
