# generated using pymatgen
data_Li2MnNbO4
_symmetry_space_group_name_H-M   'P 1'
_cell_length_a   6.23329677
_cell_length_b   6.23329669
_cell_length_c   6.28825487
_cell_angle_alpha   120.44050434
_cell_angle_beta   120.44050085
_cell_angle_gamma   92.13635314
_symmetry_Int_Tables_number   1
_chemical_formula_structural   Li2MnNbO4
_chemical_formula_sum   'Li4 Mn2 Nb2 O8'
_cell_volume   166.80318011
_cell_formula_units_Z   2
loop_
 _symmetry_equiv_pos_site_id
 _symmetry_equiv_pos_as_xyz
  1  'x, y, z'
loop_
 _atom_site_type_symbol
 _atom_site_label
 _atom_site_symmetry_multiplicity
 _atom_site_fract_x
 _atom_site_fract_y
 _atom_site_fract_z
 _atom_site_occupancy
  Li  Li0  1  0.000000  0.500000  0.500000  1
  Li  Li1  1  0.500000  0.500000  0.500000  1
  Li  Li2  1  0.500000  0.000000  0.000000  1
  Li  Li3  1  0.500000  0.500000  0.000000  1
  Mn  Mn4  1  0.000000  0.000000  0.500000  1
  Mn  Mn5  1  0.000000  0.000000  0.000000  1
  Nb  Nb6  1  0.000000  0.500000  0.000000  1
  Nb  Nb7  1  0.500000  0.000000  0.500000  1
  O  O8  1  0.248806  0.748427  0.995317  1
  O  O9  1  0.277277  0.225950  0.502450  1
  O  O10  1  0.251573  0.751194  0.504683  1
  O  O11  1  0.774050  0.722723  0.997550  1
  O  O12  1  0.225950  0.277277  0.002450  1
  O  O13  1  0.748427  0.248806  0.495317  1
  O  O14  1  0.722723  0.774050  0.497550  1
  O  O15  1  0.751194  0.251573  0.004683  1
