# generated using pymatgen
data_Li3MnOF3
_symmetry_space_group_name_H-M   'P 1'
_cell_length_a   3.06930265
_cell_length_b   5.20619168
_cell_length_c   10.47390256
_cell_angle_alpha   79.59214577
_cell_angle_beta   90.07943741
_cell_angle_gamma   107.26291635
_symmetry_Int_Tables_number   1
_chemical_formula_structural   Li3MnOF3
_chemical_formula_sum   'Li6 Mn2 O2 F6'
_cell_volume   156.95423752
_cell_formula_units_Z   2
loop_
 _symmetry_equiv_pos_site_id
 _symmetry_equiv_pos_as_xyz
  1  'x, y, z'
loop_
 _atom_site_type_symbol
 _atom_site_label
 _atom_site_symmetry_multiplicity
 _atom_site_fract_x
 _atom_site_fract_y
 _atom_site_fract_z
 _atom_site_occupancy
  Li  Li0  1  0.753325  0.500247  0.865004  1
  Li  Li1  1  0.499033  0.998021  0.750151  1
  Li  Li2  1  0.503876  0.000410  0.250490  1
  Li  Li3  1  0.253007  0.498618  0.638174  1
  Li  Li4  1  0.990459  0.997476  0.499885  1
  Li  Li5  1  0.996776  0.004187  0.999532  1
  Mn  Mn6  1  0.741209  0.486774  0.371215  1
  Mn  Mn7  1  0.255888  0.514597  0.130998  1
  O  O8  1  0.879721  0.760234  0.183538  1
  O  O9  1  0.117194  0.241168  0.318462  1
  F  F10  1  0.872055  0.747608  0.691665  1
  F  F11  1  0.623496  0.247963  0.576903  1
  F  F12  1  0.631502  0.260066  0.041333  1
  F  F13  1  0.124728  0.251405  0.811145  1
  F  F14  1  0.380063  0.752595  0.925268  1
  F  F15  1  0.365417  0.741733  0.461154  1
