# generated using pymatgen
data_Mn3Cr3(WO8)2
_symmetry_space_group_name_H-M   'P 1'
_cell_length_a   5.96161578
_cell_length_b   5.96181672
_cell_length_c   9.22456498
_cell_angle_alpha   89.60672404
_cell_angle_beta   90.27616552
_cell_angle_gamma   120.12301211
_symmetry_Int_Tables_number   1
_chemical_formula_structural   Mn3Cr3(WO8)2
_chemical_formula_sum   'Mn3 Cr3 W2 O16'
_cell_volume   283.57548536
_cell_formula_units_Z   1
loop_
 _symmetry_equiv_pos_site_id
 _symmetry_equiv_pos_as_xyz
  1  'x, y, z'
loop_
 _atom_site_type_symbol
 _atom_site_label
 _atom_site_symmetry_multiplicity
 _atom_site_fract_x
 _atom_site_fract_y
 _atom_site_fract_z
 _atom_site_occupancy
  Mn  Mn0  1  0.661302  0.825902  0.212903  1
  Mn  Mn1  1  0.828730  0.660063  0.714395  1
  Mn  Mn2  1  0.832572  0.162988  0.707631  1
  Cr  Cr3  1  0.166150  0.830344  0.209960  1
  Cr  Cr4  1  0.168700  0.335429  0.212936  1
  Cr  Cr5  1  0.336830  0.168643  0.712526  1
  W  W6  1  0.327397  0.665983  0.490068  1
  W  W7  1  0.662703  0.326006  0.992360  1
  O  O8  1  0.172064  0.824779  0.598035  1
  O  O9  1  0.048473  0.523172  0.344151  1
  O  O10  1  0.342434  0.670975  0.108666  1
  O  O11  1  0.991003  0.992594  0.307406  1
  O  O12  1  0.990956  0.995485  0.805137  1
  O  O13  1  0.185457  0.348853  0.590530  1
  O  O14  1  0.485554  0.953496  0.339283  1
  O  O15  1  0.483784  0.527815  0.339495  1
  O  O16  1  0.346699  0.178996  0.096340  1
  O  O17  1  0.650335  0.815296  0.594124  1
  O  O18  1  0.528457  0.486596  0.837142  1
  O  O19  1  0.513624  0.049000  0.851203  1
  O  O20  1  0.676713  0.337756  0.611541  1
  O  O21  1  0.818473  0.650759  0.098277  1
  O  O22  1  0.954582  0.495408  0.845218  1
  O  O23  1  0.827004  0.173861  0.096391  1
