# generated using pymatgen
data_LiNi(CO3)2
_symmetry_space_group_name_H-M   'P 1'
_cell_length_a   7.28158466
_cell_length_b   9.24000538
_cell_length_c   8.13438030
_cell_angle_alpha   90.00000000
_cell_angle_beta   70.78645097
_cell_angle_gamma   90.00000000
_symmetry_Int_Tables_number   1
_chemical_formula_structural   LiNi(CO3)2
_chemical_formula_sum   'Li4 Ni4 C8 O24'
_cell_volume   516.81122119
_cell_formula_units_Z   4
loop_
 _symmetry_equiv_pos_site_id
 _symmetry_equiv_pos_as_xyz
  1  'x, y, z'
loop_
 _atom_site_type_symbol
 _atom_site_label
 _atom_site_symmetry_multiplicity
 _atom_site_fract_x
 _atom_site_fract_y
 _atom_site_fract_z
 _atom_site_occupancy
  Li  Li0  1  0.998973  0.884519  0.345443  1
  Li  Li1  1  0.501027  0.384519  0.154557  1
  Li  Li2  1  0.498973  0.615481  0.845443  1
  Li  Li3  1  0.001027  0.115481  0.654557  1
  Ni  Ni4  1  0.049745  0.387670  0.447097  1
  Ni  Ni5  1  0.450255  0.887670  0.052904  1
  Ni  Ni6  1  0.549745  0.112330  0.947096  1
  Ni  Ni7  1  0.950255  0.612330  0.552904  1
  C  C8  1  0.240153  0.612244  0.233362  1
  C  C9  1  0.259847  0.112244  0.266638  1
  C  C10  1  0.256087  0.500398  0.645397  1
  C  C11  1  0.243913  0.000398  0.854603  1
  C  C12  1  0.756087  0.999602  0.145397  1
  C  C13  1  0.743913  0.499602  0.354603  1
  C  C14  1  0.740153  0.887756  0.733362  1
  C  C15  1  0.759847  0.387756  0.766638  1
  O  O16  1  0.129413  0.167514  0.396378  1
  O  O17  1  0.227392  0.471952  0.245352  1
  O  O18  1  0.122771  0.694079  0.350619  1
  O  O19  1  0.377229  0.194079  0.149381  1
  O  O20  1  0.272608  0.971952  0.254648  1
  O  O21  1  0.370587  0.667514  0.103622  1
  O  O22  1  0.121027  0.000015  0.777847  1
  O  O23  1  0.145962  0.614368  0.655112  1
  O  O24  1  0.239773  0.385879  0.556067  1
  O  O25  1  0.260227  0.885879  0.943933  1
  O  O26  1  0.354038  0.114368  0.844888  1
  O  O27  1  0.621027  0.499985  0.277847  1
  O  O28  1  0.378973  0.500015  0.722153  1
  O  O29  1  0.645962  0.885632  0.155112  1
  O  O30  1  0.739773  0.114121  0.056067  1
  O  O31  1  0.760227  0.614121  0.443933  1
  O  O32  1  0.854038  0.385632  0.344888  1
  O  O33  1  0.878973  -0.000015  0.222153  1
  O  O34  1  0.629413  0.332486  0.896378  1
  O  O35  1  0.727392  0.028048  0.745352  1
  O  O36  1  0.622771  0.805921  0.850619  1
  O  O37  1  0.877229  0.305921  0.649381  1
  O  O38  1  0.772608  0.528048  0.754648  1
  O  O39  1  0.870587  0.832486  0.603622  1
