# generated using pymatgen
data_Li5La3Nb2O12
_symmetry_space_group_name_H-M   'P 1'
_cell_length_a   11.13676487
_cell_length_b   11.15882154
_cell_length_c   11.15887124
_cell_angle_alpha   109.73105854
_cell_angle_beta   109.12966749
_cell_angle_gamma   109.31840094
_symmetry_Int_Tables_number   1
_chemical_formula_structural   Li5La3Nb2O12
_chemical_formula_sum   'Li20 La12 Nb8 O48'
_cell_volume   1070.57493699
_cell_formula_units_Z   4
loop_
 _symmetry_equiv_pos_site_id
 _symmetry_equiv_pos_as_xyz
  1  'x, y, z'
loop_
 _atom_site_type_symbol
 _atom_site_label
 _atom_site_symmetry_multiplicity
 _atom_site_fract_x
 _atom_site_fract_y
 _atom_site_fract_z
 _atom_site_occupancy
  Li  Li0  1  0.168364  0.905525  0.888026  1
  Li  Li1  1  0.059234  0.110818  0.811850  1
  Li  Li2  1  0.255006  0.684225  0.789756  1
  Li  Li3  1  0.212295  0.746572  0.323149  1
  Li  Li4  1  0.284963  0.612133  0.526516  1
  Li  Li5  1  0.329888  0.221407  0.735098  1
  Li  Li6  1  0.573689  0.753322  0.960793  1
  Li  Li7  1  0.243233  0.037953  0.428526  1
  Li  Li8  1  0.475093  0.712245  0.387502  1
  Li  Li9  1  0.524410  0.284156  0.611804  1
  Li  Li10  1  0.605184  0.526187  0.284976  1
  Li  Li11  1  0.427020  0.245942  0.039755  1
  Li  Li12  1  0.675770  0.788363  0.256545  1
  Li  Li13  1  0.705660  0.388306  0.460831  1
  Li  Li14  1  0.802784  0.251973  0.690299  1
  Li  Li15  1  0.893271  0.182362  0.931856  1
  Li  Li16  1  0.971942  0.584017  0.759375  1
  Li  Li17  1  0.746066  0.318634  0.210278  1
  Li  Li18  1  0.928782  0.889250  0.183041  1
  Li  Li19  1  0.821295  0.073990  0.111883  1
  La  La20  1  0.249221  0.885900  0.632353  1
  La  La21  1  0.130635  0.377505  0.751092  1
  La  La22  1  0.131032  0.258941  0.380833  1
  La  La23  1  0.625030  0.872735  0.743678  1
  La  La24  1  0.242610  0.380308  0.133294  1
  La  La25  1  0.360625  0.749288  0.116539  1
  La  La26  1  0.369778  0.121338  0.245406  1
  La  La27  1  0.631483  0.250648  0.881438  1
  La  La28  1  0.750936  0.619390  0.869141  1
  La  La29  1  0.864121  0.755286  0.616254  1
  La  La30  1  0.751006  0.122007  0.374997  1
  La  La31  1  0.883109  0.628767  0.251279  1
  Nb  Nb32  1  0.997794  0.500123  0.495828  1
  Nb  Nb33  1  0.994280  0.000911  0.499237  1
  Nb  Nb34  1  0.998478  0.503088  0.003315  1
  Nb  Nb35  1  0.499831  0.496998  0.506261  1
  Nb  Nb36  1  0.507131  0.000867  0.501968  1
  Nb  Nb37  1  0.002304  0.994222  0.004071  1
  Nb  Nb38  1  0.498613  0.501108  0.996943  1
  Nb  Nb39  1  0.503632  0.000047  0.000219  1
  O  O40  1  0.081136  0.972489  0.673286  1
  O  O41  1  0.115337  0.580737  0.907179  1
  O  O42  1  0.029027  0.323892  0.912854  1
  O  O43  1  0.079211  0.698769  0.680052  1
  O  O44  1  0.086324  0.884570  0.412496  1
  O  O45  1  0.098847  0.627108  0.427623  1
  O  O46  1  0.174791  0.486202  0.592790  1
  O  O47  1  0.416552  0.826795  0.798598  1
  O  O48  1  0.302953  0.322204  0.912707  1
  O  O49  1  0.387180  0.591569  0.915987  1
  O  O50  1  0.018183  0.191732  0.113628  1
  O  O51  1  0.326338  0.926701  0.316549  1
  O  O52  1  0.171783  0.190675  0.573971  1
  O  O53  1  0.205096  0.592332  0.173425  1
  O  O54  1  0.409049  0.821333  0.520542  1
  O  O55  1  0.327387  0.906595  0.019468  1
  O  O56  1  0.302926  0.474495  0.388534  1
  O  O57  1  0.114457  0.029121  0.207210  1
  O  O58  1  0.534005  0.620134  0.702686  1
  O  O59  1  0.415950  0.088905  0.888044  1
  O  O60  1  0.526352  0.402075  0.827686  1
  O  O61  1  0.383669  0.292699  0.468633  1
  O  O62  1  0.198125  0.108383  0.020345  1
  O  O63  1  0.574649  0.901466  0.376990  1
  O  O64  1  0.415777  0.097121  0.617618  1
  O  O65  1  0.805813  0.882508  0.986870  1
  O  O66  1  0.612383  0.691974  0.519725  1
  O  O67  1  0.480674  0.594531  0.180034  1
  O  O68  1  0.470853  0.378893  0.297262  1
  O  O69  1  0.593928  0.917949  0.115117  1
  O  O70  1  0.885504  0.984962  0.812807  1
  O  O71  1  0.678755  0.088702  0.975294  1
  O  O72  1  0.699556  0.522128  0.613601  1
  O  O73  1  0.601012  0.180051  0.487358  1
  O  O74  1  0.804791  0.417191  0.824010  1
  O  O75  1  0.675468  0.090238  0.706510  1
  O  O76  1  0.972183  0.798517  0.873516  1
  O  O77  1  0.825526  0.793813  0.406417  1
  O  O78  1  0.614523  0.420859  0.099966  1
  O  O79  1  0.693942  0.678352  0.079061  1
  O  O80  1  0.582882  0.174191  0.199728  1
  O  O81  1  0.817722  0.516112  0.399340  1
  O  O82  1  0.904374  0.389861  0.583704  1
  O  O83  1  0.921864  0.123828  0.593636  1
  O  O84  1  0.909718  0.296571  0.326394  1
  O  O85  1  0.882830  0.408306  0.080000  1
  O  O86  1  0.972186  0.672093  0.089959  1
  O  O87  1  0.903131  0.020640  0.322925  1
