# generated using pymatgen
data_B5SbO10
_symmetry_space_group_name_H-M   'P 1'
_cell_length_a   7.29863322
_cell_length_b   15.05680316
_cell_length_c   7.28878351
_cell_angle_alpha   90.00000000
_cell_angle_beta   91.83551974
_cell_angle_gamma   90.00000000
_symmetry_Int_Tables_number   1
_chemical_formula_structural   B5SbO10
_chemical_formula_sum   'B20 Sb4 O40'
_cell_volume   800.58319127
_cell_formula_units_Z   4
loop_
 _symmetry_equiv_pos_site_id
 _symmetry_equiv_pos_as_xyz
  1  'x, y, z'
loop_
 _atom_site_type_symbol
 _atom_site_label
 _atom_site_symmetry_multiplicity
 _atom_site_fract_x
 _atom_site_fract_y
 _atom_site_fract_z
 _atom_site_occupancy
  B  B0  1  0.201315  0.027684  0.911115  1
  B  B1  1  0.201315  0.472316  0.411115  1
  B  B2  1  0.219583  0.778140  0.519262  1
  B  B3  1  0.219583  0.721860  0.019262  1
  B  B4  1  0.245000  0.503997  0.725542  1
  B  B5  1  0.245000  0.996003  0.225542  1
  B  B6  1  0.313964  0.620152  0.502902  1
  B  B7  1  0.313964  0.879848  0.002902  1
  B  B8  1  0.467609  0.258055  0.502167  1
  B  B9  1  0.467609  0.241945  0.002167  1
  B  B10  1  0.532391  0.758055  0.997833  1
  B  B11  1  0.532391  0.741945  0.497833  1
  B  B12  1  0.686036  0.120152  0.997098  1
  B  B13  1  0.686036  0.379848  0.497098  1
  B  B14  1  0.755000  0.003997  0.774458  1
  B  B15  1  0.755000  0.496003  0.274458  1
  B  B16  1  0.780417  0.278140  0.980738  1
  B  B17  1  0.780417  0.221860  0.480738  1
  B  B18  1  0.798685  0.527684  0.588885  1
  B  B19  1  0.798685  0.972316  0.088885  1
  Sb  Sb20  1  0.154330  0.124999  0.532495  1
  Sb  Sb21  1  0.154330  0.375001  0.032495  1
  Sb  Sb22  1  0.845670  0.624999  0.967505  1
  Sb  Sb23  1  0.845670  0.875001  0.467505  1
  O  O24  1  0.091614  0.848119  0.536770  1
  O  O25  1  0.091614  0.651881  0.036770  1
  O  O26  1  0.142195  0.093561  0.783597  1
  O  O27  1  0.142195  0.406439  0.283597  1
  O  O28  1  0.173861  0.807211  0.992639  1
  O  O29  1  0.169746  0.448291  0.592838  1
  O  O30  1  0.173861  0.692789  0.492639  1
  O  O31  1  0.169746  0.051709  0.092838  1
  O  O32  1  0.240190  0.478887  0.913526  1
  O  O33  1  0.240190  0.021113  0.413526  1
  O  O34  1  0.280075  0.234986  0.514204  1
  O  O35  1  0.272632  0.949289  0.865438  1
  O  O36  1  0.280075  0.265014  0.014204  1
  O  O37  1  0.272632  0.550711  0.365438  1
  O  O38  1  0.318217  0.583306  0.692432  1
  O  O39  1  0.318217  0.916694  0.192432  1
  O  O40  1  0.402751  0.805753  0.534923  1
  O  O41  1  0.402751  0.694247  0.034923  1
  O  O42  1  0.502049  0.344201  0.528911  1
  O  O43  1  0.497951  0.844201  0.971089  1
  O  O44  1  0.502049  0.155799  0.028911  1
  O  O45  1  0.497951  0.655799  0.471089  1
  O  O46  1  0.597249  0.305753  0.965077  1
  O  O47  1  0.597249  0.194247  0.465077  1
  O  O48  1  0.681782  0.083306  0.807568  1
  O  O49  1  0.681782  0.416694  0.307568  1
  O  O50  1  0.727368  0.449289  0.634562  1
  O  O51  1  0.719925  0.734986  0.985796  1
  O  O52  1  0.727368  0.050711  0.134562  1
  O  O53  1  0.719925  0.765014  0.485796  1
  O  O54  1  0.759810  0.978887  0.586474  1
  O  O55  1  0.759810  0.521113  0.086474  1
  O  O56  1  0.830254  0.948291  0.907162  1
  O  O57  1  0.826139  0.307211  0.507361  1
  O  O58  1  0.830254  0.551709  0.407162  1
  O  O59  1  0.826139  0.192789  0.007361  1
  O  O60  1  0.857805  0.593561  0.716403  1
  O  O61  1  0.857805  0.906439  0.216403  1
  O  O62  1  0.908386  0.348119  0.963230  1
  O  O63  1  0.908386  0.151881  0.463230  1
