# generated using pymatgen
data_Li6FeO5F
_symmetry_space_group_name_H-M   'P 1'
_cell_length_a   5.53055193
_cell_length_b   5.62061648
_cell_length_c   10.54690045
_cell_angle_alpha   88.61354212
_cell_angle_beta   89.86866550
_cell_angle_gamma   60.90644814
_symmetry_Int_Tables_number   1
_chemical_formula_structural   Li6FeO5F
_chemical_formula_sum   'Li12 Fe2 O10 F2'
_cell_volume   286.38483053
_cell_formula_units_Z   2
loop_
 _symmetry_equiv_pos_site_id
 _symmetry_equiv_pos_as_xyz
  1  'x, y, z'
loop_
 _atom_site_type_symbol
 _atom_site_label
 _atom_site_symmetry_multiplicity
 _atom_site_fract_x
 _atom_site_fract_y
 _atom_site_fract_z
 _atom_site_occupancy
  Li  Li0  1  0.021428  0.319768  0.762444  1
  Li  Li1  1  0.343321  0.330295  0.929043  1
  Li  Li2  1  0.315268  0.325453  0.432356  1
  Li  Li3  1  0.260660  0.716567  0.764021  1
  Li  Li4  1  0.663300  0.975970  0.742256  1
  Li  Li5  1  0.615441  0.381317  0.635777  1
  Li  Li6  1  0.365404  0.961839  0.252328  1
  Li  Li7  1  0.663242  0.324960  0.259274  1
  Li  Li8  1  0.652946  0.665520  0.932319  1
  Li  Li9  1  0.674666  0.658038  0.425469  1
  Li  Li10  1  0.005883  0.379208  0.137301  1
  Li  Li11  1  0.010066  0.723335  0.256604  1
  Fe  Fe12  1  0.991356  0.001504  0.000801  1
  Fe  Fe13  1  0.000731  0.998276  0.500787  1
  O  O14  1  0.014098  0.028777  0.171321  1
  O  O15  1  0.972041  0.038840  0.670585  1
  O  O16  1  0.317412  0.973193  0.445432  1
  O  O17  1  0.005316  0.700657  0.438416  1
  O  O18  1  0.349443  0.340256  0.733937  1
  O  O19  1  0.285378  0.693599  0.951414  1
  O  O20  1  0.679550  0.302391  0.455761  1
  O  O21  1  0.712438  0.643672  0.234960  1
  O  O22  1  0.991979  0.317147  0.956389  1
  O  O23  1  0.703174  0.994324  0.926560  1
  F  F24  1  0.319040  0.333931  0.233672  1
  F  F25  1  0.652339  0.644541  0.733104  1
