# generated using pymatgen
data_VPO5
_symmetry_space_group_name_H-M   'P 1'
_cell_length_a   12.58010776
_cell_length_b   6.23486997
_cell_length_c   10.61502882
_cell_angle_alpha   90.00000000
_cell_angle_beta   90.00000000
_cell_angle_gamma   90.00000000
_symmetry_Int_Tables_number   1
_chemical_formula_structural   VPO5
_chemical_formula_sum   'V8 P8 O40'
_cell_volume   832.59335312
_cell_formula_units_Z   8
loop_
 _symmetry_equiv_pos_site_id
 _symmetry_equiv_pos_as_xyz
  1  'x, y, z'
loop_
 _atom_site_type_symbol
 _atom_site_label
 _atom_site_symmetry_multiplicity
 _atom_site_fract_x
 _atom_site_fract_y
 _atom_site_fract_z
 _atom_site_occupancy
  V  V0  1  0.115729  0.000601  0.497033  1
  V  V1  1  0.250200  0.273340  0.253457  1
  V  V2  1  0.249800  0.773340  0.753457  1
  V  V3  1  0.384271  0.500601  0.997033  1
  V  V4  1  0.615729  0.499399  0.497033  1
  V  V5  1  0.750200  0.226660  0.253457  1
  V  V6  1  0.749800  0.726660  0.753457  1
  V  V7  1  0.884271  0.999399  0.997033  1
  P  P8  1  0.002965  0.837245  0.759618  1
  P  P9  1  0.186073  0.495933  0.517676  1
  P  P10  1  0.313927  0.995933  0.017676  1
  P  P11  1  0.497035  0.337245  0.259618  1
  P  P12  1  0.502965  0.662755  0.759618  1
  P  P13  1  0.686073  0.004067  0.517676  1
  P  P14  1  0.813927  0.504067  0.017676  1
  P  P15  1  0.997035  0.162755  0.259618  1
  O  O16  1  0.006806  0.023565  0.383375  1
  O  O17  1  0.013448  0.980457  0.644946  1
  O  O18  1  0.097744  0.304978  0.249717  1
  O  O19  1  0.103142  0.696152  0.781509  1
  O  O20  1  0.114207  0.693210  0.493621  1
  O  O21  1  0.114266  0.299884  0.544207  1
  O  O22  1  0.215787  0.036793  0.396450  1
  O  O23  1  0.221221  0.958830  0.646378  1
  O  O24  1  0.243715  0.953929  0.900530  1
  O  O25  1  0.242545  0.041836  0.134525  1
  O  O26  1  0.257455  0.541836  0.634525  1
  O  O27  1  0.256285  0.453929  0.400530  1
  O  O28  1  0.278779  0.458830  0.146378  1
  O  O29  1  0.284213  0.536793  0.896450  1
  O  O30  1  0.385734  0.799884  0.044207  1
  O  O31  1  0.385793  0.193210  0.993621  1
  O  O32  1  0.396858  0.196152  0.281509  1
  O  O33  1  0.402256  0.804978  0.749717  1
  O  O34  1  0.486552  0.480457  0.144946  1
  O  O35  1  0.493194  0.523565  0.883375  1
  O  O36  1  0.506806  0.476435  0.383375  1
  O  O37  1  0.513448  0.519543  0.644946  1
  O  O38  1  0.597744  0.195022  0.249717  1
  O  O39  1  0.603142  0.803848  0.781509  1
  O  O40  1  0.614207  0.806790  0.493621  1
  O  O41  1  0.614266  0.200116  0.544207  1
  O  O42  1  0.715787  0.463207  0.396450  1
  O  O43  1  0.721221  0.541170  0.646378  1
  O  O44  1  0.743715  0.546071  0.900530  1
  O  O45  1  0.742545  0.458164  0.134525  1
  O  O46  1  0.757455  0.958164  0.634525  1
  O  O47  1  0.756285  0.046071  0.400530  1
  O  O48  1  0.778779  0.041170  0.146378  1
  O  O49  1  0.784213  0.963207  0.896450  1
  O  O50  1  0.885734  0.700116  0.044207  1
  O  O51  1  0.885793  0.306790  0.993621  1
  O  O52  1  0.896858  0.303848  0.281509  1
  O  O53  1  0.902256  0.695022  0.749717  1
  O  O54  1  0.986552  0.019543  0.144946  1
  O  O55  1  0.993194  0.976435  0.883375  1
