# generated using pymatgen
data_LiCo(SO4)2
_symmetry_space_group_name_H-M   'P 1'
_cell_length_a   8.95159953
_cell_length_b   8.84975159
_cell_length_c   8.97613275
_cell_angle_alpha   56.10392669
_cell_angle_beta   55.59013068
_cell_angle_gamma   55.52429625
_symmetry_Int_Tables_number   1
_chemical_formula_structural   LiCo(SO4)2
_chemical_formula_sum   'Li3 Co3 S6 O24'
_cell_volume   453.09296559
_cell_formula_units_Z   3
loop_
 _symmetry_equiv_pos_site_id
 _symmetry_equiv_pos_as_xyz
  1  'x, y, z'
loop_
 _atom_site_type_symbol
 _atom_site_label
 _atom_site_symmetry_multiplicity
 _atom_site_fract_x
 _atom_site_fract_y
 _atom_site_fract_z
 _atom_site_occupancy
  Li  Li0  1  0.163545  0.136289  0.153649  1
  Li  Li1  1  0.179431  0.415746  0.777719  1
  Li  Li2  1  0.776234  0.181169  0.415998  1
  Co  Co3  1  0.358695  0.353300  0.346669  1
  Co  Co4  1  0.640558  0.642393  0.650701  1
  Co  Co5  1  0.845436  0.853947  0.858430  1
  S  S6  1  0.036012  0.742221  0.468081  1
  S  S7  1  0.464033  0.038147  0.748921  1
  S  S8  1  0.749625  0.468214  0.033768  1
  S  S9  1  0.252399  0.543114  0.954616  1
  S  S10  1  0.536580  0.955431  0.255346  1
  S  S11  1  0.957094  0.252172  0.541034  1
  O  O12  1  0.109469  0.297645  0.510716  1
  O  O13  1  0.299910  0.512526  0.104012  1
  O  O14  1  0.005861  0.947094  0.345477  1
  O  O15  1  0.509275  0.114924  0.299752  1
  O  O16  1  0.026992  0.701207  0.660223  1
  O  O17  1  0.234632  0.609659  0.380370  1
  O  O18  1  0.378154  0.240880  0.619882  1
  O  O19  1  0.339267  0.011915  0.948141  1
  O  O20  1  0.629449  0.372983  0.236863  1
  O  O21  1  0.046150  0.683263  0.979909  1
  O  O22  1  0.277632  0.360795  0.960830  1
  O  O23  1  0.352290  0.976563  0.281256  1
  O  O24  1  0.662093  0.025538  0.703225  1
  O  O25  1  0.709143  0.663260  0.020257  1
  O  O26  1  0.954985  0.340435  0.000753  1
  O  O27  1  0.381839  0.632449  0.759623  1
  O  O28  1  0.676709  0.984294  0.050625  1
  O  O29  1  0.627738  0.765162  0.382931  1
  O  O30  1  0.760307  0.386120  0.631184  1
  O  O31  1  0.962971  0.276501  0.362136  1
  O  O32  1  0.493298  0.896502  0.686887  1
  O  O33  1  0.979474  0.047791  0.678515  1
  O  O34  1  0.685855  0.491757  0.900107  1
  O  O35  1  0.890262  0.688794  0.496594  1
