# generated using pymatgen
data_Li3Mo4P9O32
_symmetry_space_group_name_H-M   'P 1'
_cell_length_a   14.02332591
_cell_length_b   14.02332591
_cell_length_c   6.47322766
_cell_angle_alpha   90.00000000
_cell_angle_beta   90.00000000
_cell_angle_gamma   90.00000000
_symmetry_Int_Tables_number   1
_chemical_formula_structural   Li3Mo4P9O32
_chemical_formula_sum   'Li6 Mo8 P18 O64'
_cell_volume   1272.98397335
_cell_formula_units_Z   2
loop_
 _symmetry_equiv_pos_site_id
 _symmetry_equiv_pos_as_xyz
  1  'x, y, z'
loop_
 _atom_site_type_symbol
 _atom_site_label
 _atom_site_symmetry_multiplicity
 _atom_site_fract_x
 _atom_site_fract_y
 _atom_site_fract_z
 _atom_site_occupancy
  Li  Li0  1  0.500000  0.500000  0.500000  1
  Li  Li1  1  0.000000  0.500000  0.136679  1
  Li  Li2  1  0.500000  0.000000  0.863321  1
  Li  Li3  1  0.000000  0.500000  0.636679  1
  Li  Li4  1  0.500000  0.000000  0.363321  1
  Li  Li5  1  0.000000  0.000000  0.000000  1
  Mo  Mo6  1  0.121199  0.196691  0.622922  1
  Mo  Mo7  1  0.378801  0.696691  0.877078  1
  Mo  Mo8  1  0.621199  0.303309  0.877078  1
  Mo  Mo9  1  0.696691  0.621199  0.122922  1
  Mo  Mo10  1  0.303309  0.378801  0.122922  1
  Mo  Mo11  1  0.196691  0.878801  0.377078  1
  Mo  Mo12  1  0.878801  0.803309  0.622922  1
  Mo  Mo13  1  0.803309  0.121199  0.377078  1
  P  P14  1  0.398927  0.747458  0.369097  1
  P  P15  1  0.560338  0.807751  0.112902  1
  P  P16  1  0.939662  0.307751  0.387098  1
  P  P17  1  0.752542  0.101073  0.869097  1
  P  P18  1  0.247458  0.898927  0.869097  1
  P  P19  1  0.898927  0.752542  0.130903  1
  P  P20  1  0.101073  0.247458  0.130903  1
  P  P21  1  0.252542  0.398927  0.630903  1
  P  P22  1  0.807751  0.439662  0.887098  1
  P  P23  1  0.601073  0.252542  0.369097  1
  P  P24  1  0.692249  0.939662  0.612902  1
  P  P25  1  0.307751  0.060338  0.612902  1
  P  P26  1  0.500000  0.500000  0.000000  1
  P  P27  1  0.000000  0.000000  0.500000  1
  P  P28  1  0.439662  0.192249  0.112902  1
  P  P29  1  0.060338  0.692249  0.387098  1
  P  P30  1  0.192249  0.560338  0.887098  1
  P  P31  1  0.747458  0.601073  0.630903  1
  O  O32  1  0.841827  0.661081  0.107686  1
  O  O33  1  0.661081  0.158173  0.892314  1
  O  O34  1  0.914294  0.443391  0.897926  1
  O  O35  1  0.754309  0.490782  0.063944  1
  O  O36  1  0.254309  0.009218  0.436056  1
  O  O37  1  0.245691  0.509218  0.063944  1
  O  O38  1  0.683299  0.633788  0.809335  1
  O  O39  1  0.007581  0.724740  0.171994  1
  O  O40  1  0.262304  0.160925  0.640382  1
  O  O41  1  0.838919  0.658173  0.607686  1
  O  O42  1  0.341827  0.838919  0.392314  1
  O  O43  1  0.556609  0.914294  0.102074  1
  O  O44  1  0.237696  0.660925  0.859618  1
  O  O45  1  0.056609  0.585706  0.397926  1
  O  O46  1  0.940892  0.063643  0.351319  1
  O  O47  1  0.009218  0.745691  0.563944  1
  O  O48  1  0.063643  0.059108  0.648681  1
  O  O49  1  0.133788  0.183299  0.309335  1
  O  O50  1  0.762304  0.339075  0.859618  1
  O  O51  1  0.402842  0.687283  0.567601  1
  O  O52  1  0.316701  0.366212  0.809335  1
  O  O53  1  0.490782  0.245691  0.936056  1
  O  O54  1  0.943391  0.414294  0.397926  1
  O  O55  1  0.158173  0.338919  0.107686  1
  O  O56  1  0.339075  0.237696  0.140382  1
  O  O57  1  0.660925  0.762304  0.140382  1
  O  O58  1  0.275260  0.007581  0.828006  1
  O  O59  1  0.436357  0.559108  0.851319  1
  O  O60  1  0.902842  0.812717  0.932399  1
  O  O61  1  0.443391  0.085706  0.102074  1
  O  O62  1  0.312717  0.402842  0.432399  1
  O  O63  1  0.563643  0.440892  0.851319  1
  O  O64  1  0.658173  0.161081  0.392314  1
  O  O65  1  0.440892  0.436357  0.148681  1
  O  O66  1  0.866212  0.816701  0.309335  1
  O  O67  1  0.183299  0.866212  0.690665  1
  O  O68  1  0.816701  0.133788  0.690665  1
  O  O69  1  0.085706  0.556609  0.897926  1
  O  O70  1  0.585706  0.943391  0.602074  1
  O  O71  1  0.160925  0.737696  0.359618  1
  O  O72  1  0.161081  0.341827  0.607686  1
  O  O73  1  0.492419  0.224740  0.328006  1
  O  O74  1  0.509218  0.754309  0.936056  1
  O  O75  1  0.059108  0.936357  0.351319  1
  O  O76  1  0.366212  0.683299  0.190665  1
  O  O77  1  0.775260  0.492419  0.671994  1
  O  O78  1  0.097158  0.187283  0.932399  1
  O  O79  1  0.936357  0.940892  0.648681  1
  O  O80  1  0.633788  0.316701  0.190665  1
  O  O81  1  0.992419  0.275260  0.171994  1
  O  O82  1  0.559108  0.563643  0.148681  1
  O  O83  1  0.745691  0.990782  0.436056  1
  O  O84  1  0.687283  0.597158  0.432399  1
  O  O85  1  0.224740  0.507581  0.671994  1
  O  O86  1  0.724740  0.992419  0.828006  1
  O  O87  1  0.507581  0.775260  0.328006  1
  O  O88  1  0.812717  0.097158  0.067601  1
  O  O89  1  0.338919  0.841827  0.892314  1
  O  O90  1  0.839075  0.262304  0.359618  1
  O  O91  1  0.187283  0.902842  0.067601  1
  O  O92  1  0.414294  0.056609  0.602074  1
  O  O93  1  0.737696  0.839075  0.640382  1
  O  O94  1  0.597158  0.312717  0.567601  1
  O  O95  1  0.990782  0.254309  0.563944  1
