# generated using pymatgen
data_LiVF5
_symmetry_space_group_name_H-M   'P 1'
_cell_length_a   6.79509700
_cell_length_b   5.25718738
_cell_length_c   5.25718664
_cell_angle_alpha   75.31808911
_cell_angle_beta   72.00170996
_cell_angle_gamma   72.00170661
_symmetry_Int_Tables_number   1
_chemical_formula_structural   LiVF5
_chemical_formula_sum   'Li2 V2 F10'
_cell_volume   167.26174698
_cell_formula_units_Z   2
loop_
 _symmetry_equiv_pos_site_id
 _symmetry_equiv_pos_as_xyz
  1  'x, y, z'
loop_
 _atom_site_type_symbol
 _atom_site_label
 _atom_site_symmetry_multiplicity
 _atom_site_fract_x
 _atom_site_fract_y
 _atom_site_fract_z
 _atom_site_occupancy
  Li  Li0  1  0.000000  0.000000  0.000000  1
  Li  Li1  1  0.500000  0.000000  0.000000  1
  V  V2  1  0.250000  0.445127  0.554873  1
  V  V3  1  0.750000  0.554873  0.445127  1
  F  F4  1  0.059408  0.676249  0.337158  1
  F  F5  1  0.360853  0.218319  0.299935  1
  F  F6  1  0.250000  0.158336  0.841664  1
  F  F7  1  0.139147  0.700065  0.781681  1
  F  F8  1  0.440592  0.662842  0.323751  1
  F  F9  1  0.559408  0.337158  0.676249  1
  F  F10  1  0.860853  0.299935  0.218319  1
  F  F11  1  0.750000  0.841664  0.158336  1
  F  F12  1  0.639147  0.781681  0.700065  1
  F  F13  1  0.940592  0.323751  0.662842  1
