# generated using pymatgen
data_Li5Cu6(P2O7)4
_symmetry_space_group_name_H-M   'P 1'
_cell_length_a   6.26491685
_cell_length_b   8.37397069
_cell_length_c   10.23645932
_cell_angle_alpha   104.42959099
_cell_angle_beta   90.97826372
_cell_angle_gamma   92.77743446
_symmetry_Int_Tables_number   1
_chemical_formula_structural   Li5Cu6(P2O7)4
_chemical_formula_sum   'Li5 Cu6 P8 O28'
_cell_volume   519.23989563
_cell_formula_units_Z   1
loop_
 _symmetry_equiv_pos_site_id
 _symmetry_equiv_pos_as_xyz
  1  'x, y, z'
loop_
 _atom_site_type_symbol
 _atom_site_label
 _atom_site_symmetry_multiplicity
 _atom_site_fract_x
 _atom_site_fract_y
 _atom_site_fract_z
 _atom_site_occupancy
  Li  Li0  1  0.014271  0.159699  0.610040  1
  Li  Li1  1  0.099743  0.611558  0.126386  1
  Li  Li2  1  0.500000  0.500000  0.500000  1
  Li  Li3  1  0.900257  0.388442  0.873614  1
  Li  Li4  1  0.985729  0.840301  0.389960  1
  Cu  Cu5  1  0.000000  0.500000  0.500000  1
  Cu  Cu6  1  0.307764  0.887923  0.648474  1
  Cu  Cu7  1  0.353548  0.883388  0.056277  1
  Cu  Cu8  1  0.500000  0.500000  0.000000  1
  Cu  Cu9  1  0.646452  0.116612  0.943723  1
  Cu  Cu10  1  0.692236  0.112077  0.351526  1
  P  P11  1  0.155074  0.209370  0.021512  1
  P  P12  1  0.186885  0.185390  0.313682  1
  P  P13  1  0.266417  0.531194  0.737598  1
  P  P14  1  0.469129  0.762181  0.318443  1
  P  P15  1  0.530871  0.237819  0.681557  1
  P  P16  1  0.733583  0.468806  0.262402  1
  P  P17  1  0.813115  0.814610  0.686318  1
  P  P18  1  0.844926  0.790630  0.978488  1
  O  O19  1  0.044322  0.836732  0.070013  1
  O  O20  1  0.014569  0.083496  0.367789  1
  O  O21  1  0.066718  0.418737  0.726168  1
  O  O22  1  0.083831  0.204197  0.170787  1
  O  O23  1  0.224182  0.389249  0.024692  1
  O  O24  1  0.224260  0.359075  0.408427  1
  O  O25  1  0.249984  0.644979  0.637991  1
  O  O26  1  0.292971  0.806553  0.417237  1
  O  O27  1  0.345321  0.621921  0.879841  1
  O  O28  1  0.325694  0.126424  0.653149  1
  O  O29  1  0.331699  0.084285  0.978402  1
  O  O30  1  0.390017  0.721897  0.168745  1
  O  O31  1  0.394501  0.098215  0.277891  1
  O  O32  1  0.459236  0.417959  0.666488  1
  O  O33  1  0.540763  0.582041  0.333512  1
  O  O34  1  0.605499  0.901785  0.722109  1
  O  O35  1  0.609983  0.278103  0.831255  1
  O  O36  1  0.668301  0.915715  0.021598  1
  O  O37  1  0.674306  0.873576  0.346851  1
  O  O38  1  0.654679  0.378079  0.120159  1
  O  O39  1  0.707029  0.193447  0.582763  1
  O  O40  1  0.750016  0.355021  0.362009  1
  O  O41  1  0.775740  0.640926  0.591573  1
  O  O42  1  0.775818  0.610751  0.975308  1
  O  O43  1  0.916169  0.795803  0.829213  1
  O  O44  1  0.933282  0.581263  0.273832  1
  O  O45  1  0.985431  0.916504  0.632211  1
  O  O46  1  0.955678  0.163268  0.929987  1
