# generated using pymatgen
data_LiTiV3O8
_symmetry_space_group_name_H-M   'P 1'
_cell_length_a   6.05673183
_cell_length_b   5.91641771
_cell_length_c   6.11024778
_cell_angle_alpha   60.97946042
_cell_angle_beta   89.97431755
_cell_angle_gamma   120.55519852
_symmetry_Int_Tables_number   1
_chemical_formula_structural   LiTiV3O8
_chemical_formula_sum   'Li1 Ti1 V3 O8'
_cell_volume   155.75053390
_cell_formula_units_Z   1
loop_
 _symmetry_equiv_pos_site_id
 _symmetry_equiv_pos_as_xyz
  1  'x, y, z'
loop_
 _atom_site_type_symbol
 _atom_site_label
 _atom_site_symmetry_multiplicity
 _atom_site_fract_x
 _atom_site_fract_y
 _atom_site_fract_z
 _atom_site_occupancy
  Li  Li0  1  0.499978  0.499997  0.500007  1
  Ti  Ti1  1  0.000016  0.999991  0.000046  1
  V  V2  1  0.000020  0.499993  -0.000032  1
  V  V3  1  0.499981  0.499992  -0.000005  1
  V  V4  1  0.500008  0.000023  0.999972  1
  O  O5  1  0.763550  0.537366  0.199226  1
  O  O6  1  0.286978  0.549260  0.201147  1
  O  O7  1  0.763368  0.020446  0.200281  1
  O  O8  1  0.272029  0.046134  0.194768  1
  O  O9  1  0.727964  0.953859  0.805232  1
  O  O10  1  0.236635  0.979558  0.799715  1
  O  O11  1  0.713027  0.450749  0.798856  1
  O  O12  1  0.236447  0.462631  0.800788  1
