# generated using pymatgen
data_Li3Fe3CuO8
_symmetry_space_group_name_H-M   'P 1'
_cell_length_a   10.33265554
_cell_length_b   10.45715016
_cell_length_c   14.68928750
_cell_angle_alpha   19.23116241
_cell_angle_beta   19.27986232
_cell_angle_gamma   33.24592439
_symmetry_Int_Tables_number   1
_chemical_formula_structural   Li3Fe3CuO8
_chemical_formula_sum   'Li3 Fe3 Cu1 O8'
_cell_volume   148.98965649
_cell_formula_units_Z   1
loop_
 _symmetry_equiv_pos_site_id
 _symmetry_equiv_pos_as_xyz
  1  'x, y, z'
loop_
 _atom_site_type_symbol
 _atom_site_label
 _atom_site_symmetry_multiplicity
 _atom_site_fract_x
 _atom_site_fract_y
 _atom_site_fract_z
 _atom_site_occupancy
  Li  Li0  1  0.999988  0.500006  0.499991  1
  Li  Li1  1  0.500020  0.000139  0.499898  1
  Li  Li2  1  0.499961  0.500103  0.499959  1
  Fe  Fe3  1  0.000005  0.500125  0.999966  1
  Fe  Fe4  1  0.500134  0.000022  -0.000126  1
  Fe  Fe5  1  0.499833  0.499894  0.000166  1
  Cu  Cu6  1  0.000110  -0.000431  0.000244  1
  O  O7  1  0.999952  0.012215  0.249850  1
  O  O8  1  -0.000010  0.508116  0.253564  1
  O  O9  1  0.530779  0.005124  0.236938  1
  O  O10  1  0.000010  0.987910  0.750071  1
  O  O11  1  0.469405  0.474521  0.298227  1
  O  O12  1  0.999985  0.491888  0.746442  1
  O  O13  1  0.469275  0.994906  0.763006  1
  O  O14  1  0.530554  0.525464  0.701805  1
