# generated using pymatgen
data_Li4Cr3CuO8
_symmetry_space_group_name_H-M   'P 1'
_cell_length_a   10.25053971
_cell_length_b   10.25054004
_cell_length_c   14.49703095
_cell_angle_alpha   19.46583609
_cell_angle_beta   19.46582760
_cell_angle_gamma   33.54878208
_symmetry_Int_Tables_number   1
_chemical_formula_structural   Li4Cr3CuO8
_chemical_formula_sum   'Li4 Cr3 Cu1 O8'
_cell_volume   146.49165444
_cell_formula_units_Z   1
loop_
 _symmetry_equiv_pos_site_id
 _symmetry_equiv_pos_as_xyz
  1  'x, y, z'
loop_
 _atom_site_type_symbol
 _atom_site_label
 _atom_site_symmetry_multiplicity
 _atom_site_fract_x
 _atom_site_fract_y
 _atom_site_fract_z
 _atom_site_occupancy
  Li  Li0  1  0.000000  0.000000  0.500000  1
  Li  Li1  1  0.000000  0.500000  0.500000  1
  Li  Li2  1  0.500000  0.000000  0.500000  1
  Li  Li3  1  0.500000  0.500000  0.500000  1
  Cr  Cr4  1  -0.000008  0.499991  0.000012  1
  Cr  Cr5  1  0.500002  0.000004  -0.000004  1
  Cr  Cr6  1  0.500001  0.500002  -0.000002  1
  Cu  Cu7  1  0.000003  0.000001  -0.000002  1
  O  O8  1  -0.000004  -0.000004  0.257976  1
  O  O9  1  0.000043  0.495783  0.261091  1
  O  O10  1  0.495784  0.000044  0.261091  1
  O  O11  1  0.000004  0.000005  0.742024  1
  O  O12  1  0.504116  0.504117  0.252849  1
  O  O13  1  0.999957  0.504217  0.738908  1
  O  O14  1  0.504216  0.999956  0.738908  1
  O  O15  1  0.495885  0.495884  0.747150  1
