# generated using pymatgen
data_Li3MnBAsO7
_symmetry_space_group_name_H-M   'P 1'
_cell_length_a   8.49644960
_cell_length_b   6.81952132
_cell_length_c   5.05478276
_cell_angle_alpha   90.00000000
_cell_angle_beta   85.42803931
_cell_angle_gamma   90.00000000
_symmetry_Int_Tables_number   1
_chemical_formula_structural   Li3MnBAsO7
_chemical_formula_sum   'Li6 Mn2 B2 As2 O14'
_cell_volume   291.95085198
_cell_formula_units_Z   2
loop_
 _symmetry_equiv_pos_site_id
 _symmetry_equiv_pos_as_xyz
  1  'x, y, z'
loop_
 _atom_site_type_symbol
 _atom_site_label
 _atom_site_symmetry_multiplicity
 _atom_site_fract_x
 _atom_site_fract_y
 _atom_site_fract_z
 _atom_site_occupancy
  Li  Li0  1  0.090909  0.250000  0.753543  1
  Li  Li1  1  0.233537  0.004386  0.242354  1
  Li  Li2  1  0.233537  0.495614  0.242354  1
  Li  Li3  1  0.766463  0.504386  0.757646  1
  Li  Li4  1  0.766463  0.995614  0.757646  1
  Li  Li5  1  0.909091  0.750000  0.246457  1
  Mn  Mn6  1  0.317151  0.750000  0.793105  1
  Mn  Mn7  1  0.682849  0.250000  0.206895  1
  B  B8  1  0.039647  0.750000  0.716636  1
  B  B9  1  0.960353  0.250000  0.283364  1
  As  As10  1  0.414915  0.250000  0.730929  1
  As  As11  1  0.585085  0.750000  0.269071  1
  O  O12  1  0.110355  0.250000  0.355442  1
  O  O13  1  0.087423  0.750000  0.973815  1
  O  O14  1  0.169474  0.750000  0.522968  1
  O  O15  1  0.292450  0.059506  0.829497  1
  O  O16  1  0.292450  0.440494  0.829497  1
  O  O17  1  0.459913  0.250000  0.392503  1
  O  O18  1  0.402820  0.750000  0.141857  1
  O  O19  1  0.597180  0.250000  0.858143  1
  O  O20  1  0.540087  0.750000  0.607497  1
  O  O21  1  0.707550  0.559506  0.170503  1
  O  O22  1  0.707550  0.940494  0.170503  1
  O  O23  1  0.830526  0.250000  0.477032  1
  O  O24  1  0.912577  0.250000  0.026185  1
  O  O25  1  0.889645  0.750000  0.644558  1
