# generated using pymatgen
data_Li4V3CoO8
_symmetry_space_group_name_H-M   'P 1'
_cell_length_a   10.36434831
_cell_length_b   10.36461410
_cell_length_c   14.64940711
_cell_angle_alpha   19.42696849
_cell_angle_beta   19.40504653
_cell_angle_gamma   33.52500095
_symmetry_Int_Tables_number   1
_chemical_formula_structural   Li4V3CoO8
_chemical_formula_sum   'Li4 V3 Co1 O8'
_cell_volume   150.05718143
_cell_formula_units_Z   1
loop_
 _symmetry_equiv_pos_site_id
 _symmetry_equiv_pos_as_xyz
  1  'x, y, z'
loop_
 _atom_site_type_symbol
 _atom_site_label
 _atom_site_symmetry_multiplicity
 _atom_site_fract_x
 _atom_site_fract_y
 _atom_site_fract_z
 _atom_site_occupancy
  Li  Li0  1  0.000000  0.000001  0.499999  1
  Li  Li1  1  0.999999  0.500000  0.500001  1
  Li  Li2  1  0.499999  0.999999  0.500001  1
  Li  Li3  1  0.500000  0.499999  0.500000  1
  V  V4  1  0.000000  0.500002  0.999998  1
  V  V5  1  0.500002  0.999999  1.000000  1
  V  V6  1  0.499999  0.500001  0.000000  1
  Co  Co7  1  0.999999  0.999999  0.000002  1
  O  O8  1  0.013513  -0.000022  0.246520  1
  O  O9  1  -0.019831  0.465780  0.292901  1
  O  O10  1  0.487937  0.003479  0.263961  1
  O  O11  1  0.986489  0.000022  0.753480  1
  O  O12  1  0.516045  0.530356  0.226173  1
  O  O13  1  0.019830  0.534219  0.707100  1
  O  O14  1  0.512065  0.996524  0.736036  1
  O  O15  1  0.483954  0.469641  0.773829  1
