# generated using pymatgen
data_LiFe7(OF3)3
_symmetry_space_group_name_H-M   'P 1'
_cell_length_a   5.44956817
_cell_length_b   5.72286725
_cell_length_c   9.55733471
_cell_angle_alpha   85.78955684
_cell_angle_beta   71.93454376
_cell_angle_gamma   117.61620674
_symmetry_Int_Tables_number   1
_chemical_formula_structural   LiFe7(OF3)3
_chemical_formula_sum   'Li1 Fe7 O3 F9'
_cell_volume   242.60126597
_cell_formula_units_Z   1
loop_
 _symmetry_equiv_pos_site_id
 _symmetry_equiv_pos_as_xyz
  1  'x, y, z'
loop_
 _atom_site_type_symbol
 _atom_site_label
 _atom_site_symmetry_multiplicity
 _atom_site_fract_x
 _atom_site_fract_y
 _atom_site_fract_z
 _atom_site_occupancy
  Li  Li0  1  0.857249  0.633578  0.931891  1
  Fe  Fe1  1  0.136253  0.344941  0.079904  1
  Fe  Fe2  1  0.184494  0.903864  0.576195  1
  Fe  Fe3  1  0.323115  0.890052  0.171532  1
  Fe  Fe4  1  0.633516  0.628207  0.324604  1
  Fe  Fe5  1  0.359558  0.365727  0.665375  1
  Fe  Fe6  1  0.879298  0.138895  0.435761  1
  Fe  Fe7  1  0.655590  0.123526  0.808764  1
  O  O8  1  0.019859  0.012099  0.233225  1
  O  O9  1  0.271187  0.293496  0.472662  1
  O  O10  1  0.559991  0.115710  0.626231  1
  F  F11  1  0.066150  0.528480  0.722667  1
  F  F12  1  0.431566  0.882789  0.362092  1
  F  F13  1  0.540979  0.635247  0.116409  1
  F  F14  1  0.243494  0.756992  0.973011  1
  F  F15  1  0.745234  0.223719  0.015268  1
  F  F16  1  0.778464  0.724925  0.543135  1
  F  F17  1  0.435251  0.366042  0.872408  1
  F  F18  1  0.934235  0.957573  0.795407  1
  F  F19  1  0.944517  0.474137  0.273462  1
