# generated using pymatgen
data_Li3FeOF3
_symmetry_space_group_name_H-M   'P 1'
_cell_length_a   5.13199129
_cell_length_b   6.08458512
_cell_length_c   9.91296017
_cell_angle_alpha   90.00000000
_cell_angle_beta   78.59647625
_cell_angle_gamma   90.00000000
_symmetry_Int_Tables_number   1
_chemical_formula_structural   Li3FeOF3
_chemical_formula_sum   'Li12 Fe4 O4 F12'
_cell_volume   303.43179673
_cell_formula_units_Z   4
loop_
 _symmetry_equiv_pos_site_id
 _symmetry_equiv_pos_as_xyz
  1  'x, y, z'
loop_
 _atom_site_type_symbol
 _atom_site_label
 _atom_site_symmetry_multiplicity
 _atom_site_fract_x
 _atom_site_fract_y
 _atom_site_fract_z
 _atom_site_occupancy
  Li  Li0  1  0.967643  0.123187  0.246174  1
  Li  Li1  1  0.999449  0.631773  0.242810  1
  Li  Li2  1  0.999449  0.368227  0.742810  1
  Li  Li3  1  0.967643  0.876813  0.746174  1
  Li  Li4  1  0.250000  0.384355  0.000000  1
  Li  Li5  1  0.250000  0.615645  0.500000  1
  Li  Li6  1  0.532357  0.876813  0.253826  1
  Li  Li7  1  0.500551  0.368227  0.257190  1
  Li  Li8  1  0.532357  0.123187  0.753826  1
  Li  Li9  1  0.500551  0.631773  0.757190  1
  Li  Li10  1  0.750000  0.634953  0.000000  1
  Li  Li11  1  0.750000  0.365047  0.500000  1
  Fe  Fe12  1  0.250000  0.868307  0.000000  1
  Fe  Fe13  1  0.250000  0.131693  0.500000  1
  Fe  Fe14  1  0.750000  0.102420  0.000000  1
  Fe  Fe15  1  0.750000  0.897580  0.500000  1
  O  O16  1  0.609555  0.126966  0.380863  1
  O  O17  1  0.609555  0.873034  0.880863  1
  O  O18  1  0.890445  0.873034  0.119137  1
  O  O19  1  0.890445  0.126966  0.619137  1
  F  F20  1  0.139481  0.853433  0.368870  1
  F  F21  1  0.121812  0.393268  0.370876  1
  F  F22  1  0.139481  0.146567  0.868870  1
  F  F23  1  0.378188  0.606732  0.129124  1
  F  F24  1  0.121812  0.606732  0.870876  1
  F  F25  1  0.360519  0.146567  0.131130  1
  F  F26  1  0.378188  0.393268  0.629124  1
  F  F27  1  0.360519  0.853433  0.631130  1
  F  F28  1  0.627650  0.625744  0.380037  1
  F  F29  1  0.872350  0.374256  0.119963  1
  F  F30  1  0.627650  0.374256  0.880037  1
  F  F31  1  0.872350  0.625744  0.619963  1
