# generated using pymatgen
data_Li4Mn3(OF3)2
_symmetry_space_group_name_H-M   'P 1'
_cell_length_a   5.36275714
_cell_length_b   6.13968368
_cell_length_c   5.39146629
_cell_angle_alpha   89.27061328
_cell_angle_beta   79.90818549
_cell_angle_gamma   72.77824352
_symmetry_Int_Tables_number   1
_chemical_formula_structural   Li4Mn3(OF3)2
_chemical_formula_sum   'Li4 Mn3 O2 F6'
_cell_volume   166.79052398
_cell_formula_units_Z   1
loop_
 _symmetry_equiv_pos_site_id
 _symmetry_equiv_pos_as_xyz
  1  'x, y, z'
loop_
 _atom_site_type_symbol
 _atom_site_label
 _atom_site_symmetry_multiplicity
 _atom_site_fract_x
 _atom_site_fract_y
 _atom_site_fract_z
 _atom_site_occupancy
  Li  Li0  1  0.015040  0.003825  0.017524  1
  Li  Li1  1  0.984960  0.246175  0.482476  1
  Li  Li2  1  0.008824  0.486369  0.981607  1
  Li  Li3  1  0.991176  0.763631  0.518393  1
  Mn  Mn4  1  0.500000  0.125000  0.750000  1
  Mn  Mn5  1  0.494092  0.367173  0.248250  1
  Mn  Mn6  1  0.505908  0.882827  0.251750  1
  O  O7  1  0.267573  0.182288  0.105298  1
  O  O8  1  0.732427  0.067712  0.394702  1
  F  F9  1  0.774814  0.298247  0.882419  1
  F  F10  1  0.207439  0.438877  0.614146  1
  F  F11  1  0.237455  0.695784  0.164424  1
  F  F12  1  0.762545  0.554216  0.335576  1
  F  F13  1  0.225186  0.951753  0.617581  1
  F  F14  1  0.792561  0.811123  0.885854  1
