# generated using pymatgen
data_LiMn2F5
_symmetry_space_group_name_H-M   'P 1'
_cell_length_a   5.29288332
_cell_length_b   6.11974471
_cell_length_c   7.58400155
_cell_angle_alpha   70.33562762
_cell_angle_beta   90.04712992
_cell_angle_gamma   64.29502161
_symmetry_Int_Tables_number   1
_chemical_formula_structural   LiMn2F5
_chemical_formula_sum   'Li2 Mn4 F10'
_cell_volume   205.29281500
_cell_formula_units_Z   2
loop_
 _symmetry_equiv_pos_site_id
 _symmetry_equiv_pos_as_xyz
  1  'x, y, z'
loop_
 _atom_site_type_symbol
 _atom_site_label
 _atom_site_symmetry_multiplicity
 _atom_site_fract_x
 _atom_site_fract_y
 _atom_site_fract_z
 _atom_site_occupancy
  Li  Li0  1  0.002101  0.998697  0.504630  1
  Li  Li1  1  0.999324  0.002939  0.001344  1
  Mn  Mn2  1  0.625516  0.735973  0.727076  1
  Mn  Mn3  1  0.639430  0.735719  0.227114  1
  Mn  Mn4  1  0.359641  0.264262  0.776472  1
  Mn  Mn5  1  0.375266  0.264740  0.275059  1
  F  F6  1  0.751026  0.833735  0.949580  1
  F  F7  1  0.412768  0.841329  0.446694  1
  F  F8  1  0.030161  0.639057  0.650318  1
  F  F9  1  0.666566  0.362369  0.851765  1
  F  F10  1  0.337088  0.635748  0.147528  1
  F  F11  1  0.972682  0.363471  0.355459  1
  F  F12  1  0.582035  0.160526  0.556578  1
  F  F13  1  0.208472  0.997933  0.754577  1
  F  F14  1  0.253165  0.160712  0.055064  1
  F  F15  1  0.793517  0.000183  0.251607  1
