# generated using pymatgen
data_V4(OF3)3
_symmetry_space_group_name_H-M   'P 1'
_cell_length_a   5.24173353
_cell_length_b   5.42692942
_cell_length_c   17.60335869
_cell_angle_alpha   90.96528373
_cell_angle_beta   99.32525764
_cell_angle_gamma   60.61502382
_symmetry_Int_Tables_number   1
_chemical_formula_structural   V4(OF3)3
_chemical_formula_sum   'V8 O6 F18'
_cell_volume   429.41721663
_cell_formula_units_Z   2
loop_
 _symmetry_equiv_pos_site_id
 _symmetry_equiv_pos_as_xyz
  1  'x, y, z'
loop_
 _atom_site_type_symbol
 _atom_site_label
 _atom_site_symmetry_multiplicity
 _atom_site_fract_x
 _atom_site_fract_y
 _atom_site_fract_z
 _atom_site_occupancy
  V  V0  1  0.753850  0.628295  0.125302  1
  V  V1  1  0.766130  0.109960  0.630256  1
  V  V2  1  0.467971  0.273413  0.249265  1
  V  V3  1  0.483302  0.749872  0.750514  1
  V  V4  1  0.234837  0.899492  0.381905  1
  V  V5  1  0.266418  0.389971  0.872608  1
  V  V6  1  0.038887  0.986712  0.001455  1
  V  V7  1  0.968128  0.505580  0.495955  1
  O  O8  1  0.398017  0.802265  0.041623  1
  O  O9  1  0.603090  0.687782  0.456862  1
  O  O10  1  0.397151  0.575858  0.832858  1
  O  O11  1  0.109563  0.449873  0.208093  1
  O  O12  1  0.069827  0.959334  0.701955  1
  O  O13  1  0.062570  0.168872  0.438136  1
  F  F14  1  0.911906  0.847820  0.083903  1
  F  F15  1  0.961406  0.323641  0.059374  1
  F  F16  1  0.957067  0.813638  0.559747  1
  F  F17  1  0.550003  0.932391  0.191022  1
  F  F18  1  0.912405  0.047832  0.291656  1
  F  F19  1  0.916302  0.335787  0.585096  1
  F  F20  1  0.912119  0.526781  0.789680  1
  F  F21  1  0.598304  0.406896  0.166847  1
  F  F22  1  0.577628  0.910747  0.663620  1
  F  F23  1  0.455956  0.577016  0.314196  1
  F  F24  1  0.526802  0.432028  0.686870  1
  F  F25  1  0.426959  0.084719  0.337206  1
  F  F26  1  0.412531  0.296383  0.543789  1
  F  F27  1  0.589445  0.207693  0.960811  1
  F  F28  1  0.085883  0.656251  0.414196  1
  F  F29  1  0.472704  0.052273  0.815059  1
  F  F30  1  0.028255  0.689912  0.936732  1
  F  F31  1  0.084587  0.170916  0.913416  1
