# generated using pymatgen
data_Li9Sn3P8O29
_symmetry_space_group_name_H-M   'P 1'
_cell_length_a   10.13843228
_cell_length_b   10.13383429
_cell_length_c   14.08968254
_cell_angle_alpha   90.00001737
_cell_angle_beta   89.96536180
_cell_angle_gamma   60.01436191
_symmetry_Int_Tables_number   1
_chemical_formula_structural   Li9Sn3P8O29
_chemical_formula_sum   'Li18 Sn6 P16 O58'
_cell_volume   1253.83147963
_cell_formula_units_Z   2
loop_
 _symmetry_equiv_pos_site_id
 _symmetry_equiv_pos_as_xyz
  1  'x, y, z'
loop_
 _atom_site_type_symbol
 _atom_site_label
 _atom_site_symmetry_multiplicity
 _atom_site_fract_x
 _atom_site_fract_y
 _atom_site_fract_z
 _atom_site_occupancy
  Li  Li0  1  0.000008  0.000010  0.500018  1
  Li  Li1  1  0.000005  0.000008  0.999986  1
  Li  Li2  1  0.101507  0.229177  0.562065  1
  Li  Li3  1  0.229025  0.101507  0.062097  1
  Li  Li4  1  0.101490  0.669338  0.062070  1
  Li  Li5  1  0.333568  0.333317  0.381209  1
  Li  Li6  1  0.333641  0.333065  0.881260  1
  Li  Li7  1  0.228998  0.669468  0.562084  1
  Li  Li8  1  0.669556  0.101409  0.562222  1
  Li  Li9  1  0.330445  0.770968  0.937782  1
  Li  Li10  1  0.669535  0.229080  0.062230  1
  Li  Li11  1  0.330463  0.898621  0.437784  1
  Li  Li12  1  0.771000  0.330522  0.437885  1
  Li  Li13  1  0.666400  0.666730  0.618737  1
  Li  Li14  1  0.666430  0.666877  0.118798  1
  Li  Li15  1  0.898495  0.330687  0.937942  1
  Li  Li16  1  0.771031  0.898451  0.937908  1
  Li  Li17  1  0.898531  0.770794  0.437933  1
  Sn  Sn18  1  0.999993  0.434595  0.750007  1
  Sn  Sn19  1  0.000003  0.565421  0.249995  1
  Sn  Sn20  1  0.434657  0.999937  0.249936  1
  Sn  Sn21  1  0.565353  0.000062  0.750058  1
  Sn  Sn22  1  0.434673  0.565398  0.749944  1
  Sn  Sn23  1  0.565345  0.434589  0.250065  1
  P  P24  1  0.086211  0.223004  0.346944  1
  P  P25  1  0.222492  0.086716  0.846972  1
  P  P26  1  0.086279  0.690783  0.846942  1
  P  P27  1  0.332811  0.333468  0.115106  1
  P  P28  1  0.332851  0.333732  0.615108  1
  P  P29  1  0.222464  0.690804  0.346963  1
  P  P30  1  0.309076  0.777456  0.152998  1
  P  P31  1  0.690941  0.086564  0.346990  1
  P  P32  1  0.309097  0.913428  0.653000  1
  P  P33  1  0.690934  0.222469  0.847008  1
  P  P34  1  0.777529  0.309190  0.653026  1
  P  P35  1  0.667178  0.666581  0.884886  1
  P  P36  1  0.667201  0.666285  0.384883  1
  P  P37  1  0.913763  0.309196  0.153047  1
  P  P38  1  0.777566  0.913259  0.153034  1
  P  P39  1  0.913727  0.777082  0.653054  1
  O  O40  1  0.000008  0.222204  0.249997  1
  O  O41  1  0.009711  0.218751  0.068221  1
  O  O42  1  0.069672  0.238623  0.848321  1
  O  O43  1  0.222496  0.000184  0.749965  1
  O  O44  1  0.218564  0.009867  0.568123  1
  O  O45  1  0.238105  0.070689  0.348675  1
  O  O46  1  0.120211  0.355495  0.342587  1
  O  O47  1  0.201431  0.307763  0.653183  1
  O  O48  1  0.120188  0.524224  0.842561  1
  O  O49  1  0.009664  0.771544  0.568240  1
  O  O50  1  0.000022  0.777781  0.749995  1
  O  O51  1  0.069740  0.691706  0.348381  1
  O  O52  1  0.306515  0.202103  0.152801  1
  O  O53  1  0.354320  0.121366  0.843213  1
  O  O54  1  0.201473  0.490822  0.153147  1
  O  O55  1  0.332506  0.334171  0.008397  1
  O  O56  1  0.332493  0.333289  0.508406  1
  O  O57  1  0.306576  0.491383  0.652796  1
  O  O58  1  0.524450  0.121442  0.342993  1
  O  O59  1  0.490297  0.202638  0.652922  1
  O  O60  1  0.238117  0.691124  0.848637  1
  O  O61  1  0.222472  0.777343  0.249965  1
  O  O62  1  0.218535  0.771568  0.068105  1
  O  O63  1  0.227215  0.782032  0.431650  1
  O  O64  1  0.354318  0.524350  0.343258  1
  O  O65  1  0.490278  0.307090  0.152907  1
  O  O66  1  0.307034  0.762325  0.651461  1
  O  O67  1  0.524392  0.354069  0.842992  1
  O  O68  1  0.692948  0.069395  0.848549  1
  O  O69  1  0.227174  0.990855  0.931602  1
  O  O70  1  0.772754  0.009248  0.068365  1
  O  O71  1  0.777590  0.999771  0.250046  1
  O  O72  1  0.307079  0.930607  0.151403  1
  O  O73  1  0.475559  0.645932  0.157003  1
  O  O74  1  0.692898  0.237634  0.348611  1
  O  O75  1  0.509712  0.692918  0.847093  1
  O  O76  1  0.645648  0.475689  0.656764  1
  O  O77  1  0.772843  0.217998  0.568398  1
  O  O78  1  0.781436  0.228441  0.931877  1
  O  O79  1  0.777515  0.222679  0.750036  1
  O  O80  1  0.761928  0.308811  0.151324  1
  O  O81  1  0.509701  0.797418  0.347080  1
  O  O82  1  0.475583  0.878469  0.657010  1
  O  O83  1  0.693460  0.508672  0.347212  1
  O  O84  1  0.667542  0.665746  0.991615  1
  O  O85  1  0.667465  0.666800  0.491603  1
  O  O86  1  0.798572  0.509172  0.846824  1
  O  O87  1  0.645657  0.878666  0.156760  1
  O  O88  1  0.693441  0.797926  0.847210  1
  O  O89  1  0.930280  0.308347  0.651666  1
  O  O90  1  0.990305  0.228462  0.431768  1
  O  O91  1  0.879806  0.475724  0.157400  1
  O  O92  1  0.798533  0.692304  0.346837  1
  O  O93  1  0.879820  0.644410  0.657436  1
  O  O94  1  0.761926  0.929232  0.651372  1
  O  O95  1  0.781473  0.990044  0.431918  1
  O  O96  1  0.930221  0.761427  0.151590  1
  O  O97  1  0.990360  0.781206  0.931749  1
