# generated using pymatgen
data_Li2MnCr(PO4)2
_symmetry_space_group_name_H-M   'P 1'
_cell_length_a   10.41570507
_cell_length_b   6.26757517
_cell_length_c   4.78782595
_cell_angle_alpha   90.00000000
_cell_angle_beta   88.44830756
_cell_angle_gamma   90.00000000
_symmetry_Int_Tables_number   1
_chemical_formula_structural   Li2MnCr(PO4)2
_chemical_formula_sum   'Li4 Mn2 Cr2 P4 O16'
_cell_volume   312.44047914
_cell_formula_units_Z   2
loop_
 _symmetry_equiv_pos_site_id
 _symmetry_equiv_pos_as_xyz
  1  'x, y, z'
loop_
 _atom_site_type_symbol
 _atom_site_label
 _atom_site_symmetry_multiplicity
 _atom_site_fract_x
 _atom_site_fract_y
 _atom_site_fract_z
 _atom_site_occupancy
  Li  Li0  1  0.000000  0.000000  0.000000  1
  Li  Li1  1  0.000000  0.500000  0.000000  1
  Li  Li2  1  0.500000  0.000000  0.500000  1
  Li  Li3  1  0.500000  0.500000  0.500000  1
  Mn  Mn4  1  0.280911  0.250000  0.972852  1
  Mn  Mn5  1  0.719089  0.750000  0.027148  1
  Cr  Cr6  1  0.217476  0.750000  0.454964  1
  Cr  Cr7  1  0.782524  0.250000  0.545036  1
  P  P8  1  0.089375  0.250000  0.419753  1
  P  P9  1  0.405363  0.750000  0.912163  1
  P  P10  1  0.594637  0.250000  0.087837  1
  P  P11  1  0.910625  0.750000  0.580247  1
  O  O12  1  0.049364  0.750000  0.697309  1
  O  O13  1  0.091048  0.250000  0.740766  1
  O  O14  1  0.159815  0.053487  0.283943  1
  O  O15  1  0.159815  0.446513  0.283943  1
  O  O16  1  0.338292  0.549836  0.786181  1
  O  O17  1  0.338292  0.950164  0.786181  1
  O  O18  1  0.398424  0.750000  0.236263  1
  O  O19  1  0.454577  0.250000  0.209576  1
  O  O20  1  0.545423  0.750000  0.790424  1
  O  O21  1  0.601576  0.250000  0.763737  1
  O  O22  1  0.661708  0.049836  0.213819  1
  O  O23  1  0.661708  0.450164  0.213819  1
  O  O24  1  0.840185  0.553487  0.716057  1
  O  O25  1  0.840185  0.946513  0.716057  1
  O  O26  1  0.908952  0.750000  0.259234  1
  O  O27  1  0.950636  0.250000  0.302691  1
