# generated using pymatgen
data_Li2MnF5
_symmetry_space_group_name_H-M   'P 1'
_cell_length_a   9.87884377
_cell_length_b   6.91665535
_cell_length_c   6.35248257
_cell_angle_alpha   90.00000000
_cell_angle_beta   90.00000000
_cell_angle_gamma   90.00000000
_symmetry_Int_Tables_number   1
_chemical_formula_structural   Li2MnF5
_chemical_formula_sum   'Li8 Mn4 F20'
_cell_volume   434.05597127
_cell_formula_units_Z   4
loop_
 _symmetry_equiv_pos_site_id
 _symmetry_equiv_pos_as_xyz
  1  'x, y, z'
loop_
 _atom_site_type_symbol
 _atom_site_label
 _atom_site_symmetry_multiplicity
 _atom_site_fract_x
 _atom_site_fract_y
 _atom_site_fract_z
 _atom_site_occupancy
  Li  Li0  1  0.046234  0.246091  0.762018  1
  Li  Li1  1  0.175265  0.951357  0.239203  1
  Li  Li2  1  0.324735  0.451357  0.739203  1
  Li  Li3  1  0.453766  0.746091  0.262018  1
  Li  Li4  1  0.546234  0.246091  0.737982  1
  Li  Li5  1  0.675265  0.951357  0.260797  1
  Li  Li6  1  0.824735  0.451357  0.760797  1
  Li  Li7  1  0.953766  0.746091  0.237982  1
  Mn  Mn8  1  0.092085  0.762727  0.740565  1
  Mn  Mn9  1  0.407915  0.262727  0.240565  1
  Mn  Mn10  1  0.592085  0.762727  0.759435  1
  Mn  Mn11  1  0.907915  0.262727  0.259435  1
  F  F12  1  0.098577  0.770881  0.035975  1
  F  F13  1  0.097140  0.769002  0.445474  1
  F  F14  1  0.106455  0.200451  0.246194  1
  F  F15  1  0.141883  0.022890  0.740062  1
  F  F16  1  0.137880  0.485983  0.741822  1
  F  F17  1  0.358117  0.522890  0.240062  1
  F  F18  1  0.362120  0.985983  0.241822  1
  F  F19  1  0.393545  0.700451  0.746194  1
  F  F20  1  0.402860  0.269002  0.945474  1
  F  F21  1  0.401423  0.270881  0.535975  1
  F  F22  1  0.598577  0.770881  0.464025  1
  F  F23  1  0.597140  0.769002  0.054526  1
  F  F24  1  0.606455  0.200451  0.253806  1
  F  F25  1  0.641883  0.022890  0.759938  1
  F  F26  1  0.637880  0.485983  0.758178  1
  F  F27  1  0.858117  0.522890  0.259938  1
  F  F28  1  0.862120  0.985983  0.258178  1
  F  F29  1  0.893545  0.700451  0.753806  1
  F  F30  1  0.902860  0.269002  0.554526  1
  F  F31  1  0.901423  0.270881  0.964025  1
