# generated using pymatgen
data_Li2Ti6Zn3O16
_symmetry_space_group_name_H-M   'P 1'
_cell_length_a   8.47282367
_cell_length_b   8.46236111
_cell_length_c   8.46416483
_cell_angle_alpha   90.00159757
_cell_angle_beta   90.00230045
_cell_angle_gamma   90.32292384
_symmetry_Int_Tables_number   1
_chemical_formula_structural   Li2Ti6Zn3O16
_chemical_formula_sum   'Li4 Ti12 Zn6 O32'
_cell_volume   606.87176990
_cell_formula_units_Z   2
loop_
 _symmetry_equiv_pos_site_id
 _symmetry_equiv_pos_as_xyz
  1  'x, y, z'
loop_
 _atom_site_type_symbol
 _atom_site_label
 _atom_site_symmetry_multiplicity
 _atom_site_fract_x
 _atom_site_fract_y
 _atom_site_fract_z
 _atom_site_occupancy
  Li  Li0  1  0.124002  0.874786  0.375540  1
  Li  Li1  1  0.376014  0.125214  0.875523  1
  Li  Li2  1  0.501815  0.004531  0.497634  1
  Li  Li3  1  0.998200  0.995474  0.997643  1
  Ti  Ti4  1  0.115072  0.625298  0.132292  1
  Ti  Ti5  1  0.118138  0.362930  0.885422  1
  Ti  Ti6  1  0.135028  0.117019  0.627578  1
  Ti  Ti7  1  0.364993  0.882985  0.127571  1
  Ti  Ti8  1  0.381879  0.637080  0.385391  1
  Ti  Ti9  1  0.384901  0.374731  0.632295  1
  Ti  Ti10  1  0.619230  0.872831  0.862364  1
  Ti  Ti11  1  0.634285  0.132901  0.120097  1
  Ti  Ti12  1  0.635556  0.381689  0.374526  1
  Ti  Ti13  1  0.864439  0.618294  0.874504  1
  Ti  Ti14  1  0.865709  0.867123  0.620096  1
  Ti  Ti15  1  0.880793  0.127174  0.362357  1
  Zn  Zn16  1  0.005658  0.498922  0.504177  1
  Zn  Zn17  1  0.245429  0.748902  0.752527  1
  Zn  Zn18  1  0.254573  0.251091  0.252518  1
  Zn  Zn19  1  0.494377  0.501110  0.004172  1
  Zn  Zn20  1  0.747817  0.756358  0.245394  1
  Zn  Zn21  1  0.752163  0.243624  0.745379  1
  O  O22  1  0.107008  0.129221  0.389364  1
  O  O23  1  0.110703  0.894199  0.627538  1
  O  O24  1  0.111375  0.611257  0.890247  1
  O  O25  1  0.123171  0.144363  0.859144  1
  O  O26  1  0.139716  0.391752  0.105059  1
  O  O27  1  0.137856  0.361228  0.638713  1
  O  O28  1  0.140072  0.621544  0.356003  1
  O  O29  1  0.146217  0.856937  0.123607  1
  O  O30  1  0.353797  0.143069  0.623610  1
  O  O31  1  0.359933  0.378450  0.856021  1
  O  O32  1  0.362145  0.638774  0.138703  1
  O  O33  1  0.360284  0.608267  0.605037  1
  O  O34  1  0.376829  0.855651  0.359142  1
  O  O35  1  0.388626  0.388746  0.390237  1
  O  O36  1  0.389312  0.105808  0.127532  1
  O  O37  1  0.393007  0.870804  0.889365  1
  O  O38  1  0.604812  0.360892  0.607479  1
  O  O39  1  0.609125  0.605537  0.360058  1
  O  O40  1  0.610170  0.890451  0.112057  1
  O  O41  1  0.610057  0.353930  0.142043  1
  O  O42  1  0.627635  0.110180  0.893173  1
  O  O43  1  0.642412  0.140932  0.358423  1
  O  O44  1  0.643504  0.640441  0.889700  1
  O  O45  1  0.641615  0.888559  0.645104  1
  O  O46  1  0.858384  0.111468  0.145100  1
  O  O47  1  0.856488  0.359564  0.389734  1
  O  O48  1  0.857596  0.859061  0.858440  1
  O  O49  1  0.872386  0.889823  0.393170  1
  O  O50  1  0.889955  0.646089  0.642036  1
  O  O51  1  0.889837  0.109547  0.612061  1
  O  O52  1  0.890874  0.394466  0.860046  1
  O  O53  1  0.895168  0.639114  0.107472  1
