# generated using pymatgen
data_Li4TiNi3O8
_symmetry_space_group_name_H-M   'P 1'
_cell_length_a   10.19649944
_cell_length_b   10.19649944
_cell_length_c   14.44274300
_cell_angle_alpha   19.21430418
_cell_angle_beta   19.21430418
_cell_angle_gamma   33.11901910
_symmetry_Int_Tables_number   1
_chemical_formula_structural   Li4TiNi3O8
_chemical_formula_sum   'Li4 Ti1 Ni3 O8'
_cell_volume   140.84602086
_cell_formula_units_Z   1
loop_
 _symmetry_equiv_pos_site_id
 _symmetry_equiv_pos_as_xyz
  1  'x, y, z'
loop_
 _atom_site_type_symbol
 _atom_site_label
 _atom_site_symmetry_multiplicity
 _atom_site_fract_x
 _atom_site_fract_y
 _atom_site_fract_z
 _atom_site_occupancy
  Li  Li0  1  0.000000  0.500000  0.500000  1
  Li  Li1  1  0.000000  0.000000  0.500000  1
  Li  Li2  1  0.500000  0.500000  0.500000  1
  Li  Li3  1  0.500000  0.000000  0.500000  1
  Ti  Ti4  1  0.000000  0.000000  0.000000  1
  Ni  Ni5  1  0.000000  0.500000  0.000000  1
  Ni  Ni6  1  0.500000  0.500000  0.000000  1
  Ni  Ni7  1  0.500000  0.000000  0.000000  1
  O  O8  1  0.000000  0.514554  0.245611  1
  O  O9  1  1.000000  0.485446  0.754389  1
  O  O10  1  0.000000  0.000000  0.263165  1
  O  O11  1  0.514554  0.514554  0.725281  1
  O  O12  1  1.000000  1.000000  0.736835  1
  O  O13  1  0.485446  0.485446  0.274719  1
  O  O14  1  0.514554  0.000000  0.245611  1
  O  O15  1  0.485446  1.000000  0.754389  1
