# generated using pymatgen
data_Fe5(OF2)4
_symmetry_space_group_name_H-M   'P 1'
_cell_length_a   5.41681993
_cell_length_b   5.65814604
_cell_length_c   8.59583974
_cell_angle_alpha   98.63553482
_cell_angle_beta   108.36660221
_cell_angle_gamma   61.40924072
_symmetry_Int_Tables_number   1
_chemical_formula_structural   Fe5(OF2)4
_chemical_formula_sum   'Fe5 O4 F8'
_cell_volume   219.54553379
_cell_formula_units_Z   1
loop_
 _symmetry_equiv_pos_site_id
 _symmetry_equiv_pos_as_xyz
  1  'x, y, z'
loop_
 _atom_site_type_symbol
 _atom_site_label
 _atom_site_symmetry_multiplicity
 _atom_site_fract_x
 _atom_site_fract_y
 _atom_site_fract_z
 _atom_site_occupancy
  Fe  Fe0  1  0.083339  0.499923  0.166740  1
  Fe  Fe1  1  0.420506  0.500080  0.841586  1
  Fe  Fe2  1  0.992596  0.000078  0.984819  1
  Fe  Fe3  1  0.745728  0.499884  0.491913  1
  Fe  Fe4  1  0.674413  0.999804  0.348446  1
  O  O5  1  0.453218  0.399011  0.327484  1
  O  O6  1  0.191466  0.600948  0.005937  1
  O  O7  1  0.814041  0.399256  0.006092  1
  O  O8  1  0.874130  0.600668  0.327416  1
  F  F9  1  0.083952  0.498258  0.666669  1
  F  F10  1  0.605661  0.097866  0.834689  1
  F  F11  1  0.311362  0.046589  0.165598  1
  F  F12  1  0.228387  0.902148  0.834161  1
  F  F13  1  0.582197  0.502000  0.666776  1
  F  F14  1  0.534646  0.902042  0.498194  1
  F  F15  1  0.962654  0.097714  0.499403  1
  F  F16  1  0.858692  0.953506  0.167562  1
