# generated using pymatgen
data_MnCr(PO4)2
_symmetry_space_group_name_H-M   'P 1'
_cell_length_a   9.86257632
_cell_length_b   5.89648209
_cell_length_c   4.84241851
_cell_angle_alpha   90.00000000
_cell_angle_beta   91.38336973
_cell_angle_gamma   90.00000000
_symmetry_Int_Tables_number   1
_chemical_formula_structural   MnCr(PO4)2
_chemical_formula_sum   'Mn2 Cr2 P4 O16'
_cell_volume   281.52637173
_cell_formula_units_Z   2
loop_
 _symmetry_equiv_pos_site_id
 _symmetry_equiv_pos_as_xyz
  1  'x, y, z'
loop_
 _atom_site_type_symbol
 _atom_site_label
 _atom_site_symmetry_multiplicity
 _atom_site_fract_x
 _atom_site_fract_y
 _atom_site_fract_z
 _atom_site_occupancy
  Mn  Mn0  1  0.276204  0.250000  0.944653  1
  Mn  Mn1  1  0.723796  0.750000  0.055347  1
  Cr  Cr2  1  0.227169  0.750000  0.467814  1
  Cr  Cr3  1  0.772831  0.250000  0.532186  1
  P  P4  1  0.095570  0.250000  0.409548  1
  P  P5  1  0.405726  0.750000  0.920623  1
  P  P6  1  0.594274  0.250000  0.079377  1
  P  P7  1  0.904430  0.750000  0.590452  1
  O  O8  1  0.055213  0.750000  0.664790  1
  O  O9  1  0.113356  0.250000  0.728573  1
  O  O10  1  0.170681  0.044290  0.274093  1
  O  O11  1  0.170681  0.455710  0.274093  1
  O  O12  1  0.329214  0.950326  0.764102  1
  O  O13  1  0.329214  0.549674  0.764102  1
  O  O14  1  0.388969  0.750000  0.230679  1
  O  O15  1  0.444114  0.250000  0.153965  1
  O  O16  1  0.555886  0.750000  0.846035  1
  O  O17  1  0.611031  0.250000  0.769321  1
  O  O18  1  0.670786  0.049674  0.235898  1
  O  O19  1  0.670786  0.450326  0.235898  1
  O  O20  1  0.829319  0.544290  0.725907  1
  O  O21  1  0.829319  0.955710  0.725907  1
  O  O22  1  0.886644  0.750000  0.271427  1
  O  O23  1  0.944787  0.250000  0.335210  1
