# generated using pymatgen
data_LiFe2(CO3)4
_symmetry_space_group_name_H-M   'P 1'
_cell_length_a   8.31993840
_cell_length_b   6.34410462
_cell_length_c   5.58868305
_cell_angle_alpha   63.82236087
_cell_angle_beta   107.31065472
_cell_angle_gamma   96.72923488
_symmetry_Int_Tables_number   1
_chemical_formula_structural   LiFe2(CO3)4
_chemical_formula_sum   'Li1 Fe2 C4 O12'
_cell_volume   252.70363645
_cell_formula_units_Z   1
loop_
 _symmetry_equiv_pos_site_id
 _symmetry_equiv_pos_as_xyz
  1  'x, y, z'
loop_
 _atom_site_type_symbol
 _atom_site_label
 _atom_site_symmetry_multiplicity
 _atom_site_fract_x
 _atom_site_fract_y
 _atom_site_fract_z
 _atom_site_occupancy
  Li  Li0  1  0.159257  0.437725  0.275297  1
  Fe  Fe1  1  0.503753  0.509583  0.848305  1
  Fe  Fe2  1  0.997799  0.988914  0.098979  1
  C  C3  1  0.791648  0.599375  0.045474  1
  C  C4  1  0.709592  0.103779  0.999264  1
  C  C5  1  0.286492  0.898496  0.392638  1
  C  C6  1  0.206302  0.390831  0.855922  1
  O  O7  1  0.944720  0.651447  0.147759  1
  O  O8  1  0.746023  0.585876  0.810557  1
  O  O9  1  0.761921  0.073218  0.820784  1
  O  O10  1  0.822963  0.054564  0.237834  1
  O  O11  1  0.561944  0.175835  0.951380  1
  O  O12  1  0.674575  0.557468  0.170218  1
  O  O13  1  0.432124  0.836292  0.561550  1
  O  O14  1  0.259865  0.416971  0.649141  1
  O  O15  1  0.170712  0.982009  0.446072  1
  O  O16  1  0.237456  0.882957  0.157772  1
  O  O17  1  0.313832  0.445076  0.044496  1
  O  O18  1  0.058772  0.319900  0.879038  1
