# generated using pymatgen
data_LiNi(CO3)2
_symmetry_space_group_name_H-M   'P 1'
_cell_length_a   6.46711048
_cell_length_b   7.65313996
_cell_length_c   5.20611393
_cell_angle_alpha   90.00000000
_cell_angle_beta   113.64976218
_cell_angle_gamma   90.00000000
_symmetry_Int_Tables_number   1
_chemical_formula_structural   LiNi(CO3)2
_chemical_formula_sum   'Li2 Ni2 C4 O12'
_cell_volume   236.02936371
_cell_formula_units_Z   2
loop_
 _symmetry_equiv_pos_site_id
 _symmetry_equiv_pos_as_xyz
  1  'x, y, z'
loop_
 _atom_site_type_symbol
 _atom_site_label
 _atom_site_symmetry_multiplicity
 _atom_site_fract_x
 _atom_site_fract_y
 _atom_site_fract_z
 _atom_site_occupancy
  Li  Li0  1  0.673641  0.057932  0.378919  1
  Li  Li1  1  0.826359  0.557932  0.621081  1
  Ni  Ni2  1  0.008603  0.997292  0.006866  1
  Ni  Ni3  1  0.491397  0.497292  0.993134  1
  C  C4  1  0.114964  0.261066  0.869703  1
  C  C5  1  0.625819  0.241349  0.856375  1
  C  C6  1  0.385036  0.761066  0.130297  1
  C  C7  1  0.874181  0.741349  0.143625  1
  O  O8  1  0.071569  0.120130  0.716624  1
  O  O9  1  0.152161  0.408878  0.786498  1
  O  O10  1  0.393060  0.734608  0.887522  1
  O  O11  1  0.106940  0.234608  0.112478  1
  O  O12  1  0.347839  0.908878  0.213502  1
  O  O13  1  0.428431  0.620130  0.283376  1
  O  O14  1  0.593513  0.389646  0.720809  1
  O  O15  1  0.677768  0.101092  0.768216  1
  O  O16  1  0.905267  0.752787  0.910031  1
  O  O17  1  0.594733  0.252787  0.089969  1
  O  O18  1  0.822232  0.601092  0.231784  1
  O  O19  1  0.906487  0.889646  0.279191  1
