# generated using pymatgen
data_Co3(SeO3)4
_symmetry_space_group_name_H-M   'P 1'
_cell_length_a   8.02605009
_cell_length_b   9.19228638
_cell_length_c   7.66919737
_cell_angle_alpha   90.00000000
_cell_angle_beta   116.61178349
_cell_angle_gamma   90.00000000
_symmetry_Int_Tables_number   1
_chemical_formula_structural   Co3(SeO3)4
_chemical_formula_sum   'Co6 Se8 O24'
_cell_volume   505.87477875
_cell_formula_units_Z   2
loop_
 _symmetry_equiv_pos_site_id
 _symmetry_equiv_pos_as_xyz
  1  'x, y, z'
loop_
 _atom_site_type_symbol
 _atom_site_label
 _atom_site_symmetry_multiplicity
 _atom_site_fract_x
 _atom_site_fract_y
 _atom_site_fract_z
 _atom_site_occupancy
  Co  Co0  1  0.000000  0.500000  0.500000  1
  Co  Co1  1  0.280649  0.011501  0.818822  1
  Co  Co2  1  0.000000  0.000000  0.000000  1
  Co  Co3  1  0.280649  0.488499  0.318822  1
  Co  Co4  1  0.719351  0.511501  0.681178  1
  Co  Co5  1  0.719351  0.988499  0.181178  1
  Se  Se6  1  0.167357  0.682644  0.881650  1
  Se  Se7  1  0.167357  0.817356  0.381650  1
  Se  Se8  1  0.401493  0.332286  0.762142  1
  Se  Se9  1  0.598507  0.832286  0.737858  1
  Se  Se10  1  0.401493  0.167714  0.262142  1
  Se  Se11  1  0.598507  0.667714  0.237858  1
  Se  Se12  1  0.832643  0.182644  0.618350  1
  Se  Se13  1  0.832643  0.317356  0.118350  1
  O  O14  1  0.047364  0.126534  0.816254  1
  O  O15  1  0.159823  0.871007  0.938362  1
  O  O16  1  0.047364  0.373466  0.316254  1
  O  O17  1  0.205953  0.429514  0.724369  1
  O  O18  1  0.150211  0.884885  0.578031  1
  O  O19  1  0.159823  0.628993  0.438362  1
  O  O20  1  0.336183  0.161469  0.668252  1
  O  O21  1  0.205953  0.070486  0.224369  1
  O  O22  1  0.150211  0.615115  0.078031  1
  O  O23  1  0.535728  0.898904  0.915597  1
  O  O24  1  0.464272  0.398905  0.584403  1
  O  O25  1  0.336183  0.338531  0.168252  1
  O  O26  1  0.663817  0.661469  0.831748  1
  O  O27  1  0.535728  0.601096  0.415597  1
  O  O28  1  0.464272  0.101095  0.084403  1
  O  O29  1  0.849789  0.384885  0.921969  1
  O  O30  1  0.794047  0.929514  0.775631  1
  O  O31  1  0.663817  0.838531  0.331748  1
  O  O32  1  0.840177  0.371007  0.561638  1
  O  O33  1  0.849789  0.115115  0.421969  1
  O  O34  1  0.794047  0.570486  0.275631  1
  O  O35  1  0.952636  0.626534  0.683746  1
  O  O36  1  0.840177  0.128993  0.061638  1
  O  O37  1  0.952636  0.873466  0.183746  1
