# generated using pymatgen
data_Li2Mn2Ni(PO4)3
_symmetry_space_group_name_H-M   'P 1'
_cell_length_a   8.33383211
_cell_length_b   8.49854009
_cell_length_c   8.49854025
_cell_angle_alpha   63.07818457
_cell_angle_beta   64.52026686
_cell_angle_gamma   64.52026942
_symmetry_Int_Tables_number   1
_chemical_formula_structural   Li2Mn2Ni(PO4)3
_chemical_formula_sum   'Li4 Mn4 Ni2 P6 O24'
_cell_volume   463.29709329
_cell_formula_units_Z   2
loop_
 _symmetry_equiv_pos_site_id
 _symmetry_equiv_pos_as_xyz
  1  'x, y, z'
loop_
 _atom_site_type_symbol
 _atom_site_label
 _atom_site_symmetry_multiplicity
 _atom_site_fract_x
 _atom_site_fract_y
 _atom_site_fract_z
 _atom_site_occupancy
  Li  Li0  1  0.750000  0.140557  0.359443  1
  Li  Li1  1  0.250000  0.841230  0.658770  1
  Li  Li2  1  0.646256  0.252137  0.849631  1
  Li  Li3  1  0.853744  0.650369  0.247863  1
  Mn  Mn4  1  0.145266  0.144644  0.146836  1
  Mn  Mn5  1  0.354734  0.353164  0.355356  1
  Mn  Mn6  1  0.655368  0.655622  0.651402  1
  Mn  Mn7  1  0.844632  0.848598  0.844378  1
  Ni  Ni8  1  0.004554  0.001674  0.994168  1
  Ni  Ni9  1  0.495446  0.505832  0.498326  1
  P  P10  1  0.071034  0.750677  0.438116  1
  P  P11  1  0.428966  0.061884  0.749323  1
  P  P12  1  0.750000  0.439303  0.060697  1
  P  P13  1  0.250000  0.540541  0.959459  1
  P  P14  1  0.558606  0.953361  0.250712  1
  P  P15  1  0.941394  0.249288  0.546639  1
  O  O16  1  0.107661  0.316712  0.486889  1
  O  O17  1  0.328502  0.495061  0.113125  1
  O  O18  1  0.073431  0.916548  0.247688  1
  O  O19  1  0.547069  0.096610  0.320010  1
  O  O20  1  0.038740  0.812566  0.595606  1
  O  O21  1  0.261428  0.602178  0.419211  1
  O  O22  1  0.238572  0.080789  0.897822  1
  O  O23  1  0.426569  0.252312  0.583452  1
  O  O24  1  0.171498  0.386875  0.004939  1
  O  O25  1  0.602007  0.416761  0.258090  1
  O  O26  1  0.103453  0.736126  0.941847  1
  O  O27  1  0.392339  0.013111  0.183288  1
  O  O28  1  0.589487  0.037748  0.809964  1
  O  O29  1  0.897993  0.241910  0.083239  1
  O  O30  1  0.396547  0.558153  0.763874  1
  O  O31  1  0.817225  0.594026  0.030384  1
  O  O32  1  0.567071  0.755712  0.400430  1
  O  O33  1  0.751502  0.928598  0.097277  1
  O  O34  1  0.748498  0.402723  0.571402  1
  O  O35  1  0.952931  0.179990  0.403390  1
  O  O36  1  0.461260  0.904394  0.687434  1
  O  O37  1  0.932929  0.099570  0.744288  1
  O  O38  1  0.682775  0.469616  0.905974  1
  O  O39  1  0.910513  0.690036  0.462252  1
