# generated using pymatgen
data_LiVSiO5
_symmetry_space_group_name_H-M   'P 1'
_cell_length_a   6.38834273
_cell_length_b   6.29329610
_cell_length_c   4.66233570
_cell_angle_alpha   90.00000000
_cell_angle_beta   87.48407378
_cell_angle_gamma   90.00000000
_symmetry_Int_Tables_number   1
_chemical_formula_structural   LiVSiO5
_chemical_formula_sum   'Li2 V2 Si2 O10'
_cell_volume   187.26261214
_cell_formula_units_Z   2
loop_
 _symmetry_equiv_pos_site_id
 _symmetry_equiv_pos_as_xyz
  1  'x, y, z'
loop_
 _atom_site_type_symbol
 _atom_site_label
 _atom_site_symmetry_multiplicity
 _atom_site_fract_x
 _atom_site_fract_y
 _atom_site_fract_z
 _atom_site_occupancy
  Li  Li0  1  0.500000  0.000000  0.500000  1
  Li  Li1  1  0.500000  0.500000  0.500000  1
  V  V2  1  0.240567  0.250000  0.105000  1
  V  V3  1  0.759433  0.750000  0.895000  1
  Si  Si4  1  0.258632  0.750000  0.001605  1
  Si  Si5  1  0.741368  0.250000  0.998395  1
  O  O6  1  0.040575  0.750000  0.826282  1
  O  O7  1  0.274698  0.250000  0.755626  1
  O  O8  1  0.268493  0.538705  0.209240  1
  O  O9  1  0.268493  0.961295  0.209240  1
  O  O10  1  0.455685  0.750000  0.764107  1
  O  O11  1  0.544315  0.250000  0.235893  1
  O  O12  1  0.731507  0.038705  0.790760  1
  O  O13  1  0.731507  0.461295  0.790760  1
  O  O14  1  0.725302  0.750000  0.244374  1
  O  O15  1  0.959425  0.250000  0.173718  1
