# generated using pymatgen
data_Na3CuPCO7
_symmetry_space_group_name_H-M   'P 1'
_cell_length_a   9.04125839
_cell_length_b   6.54550174
_cell_length_c   5.21882693
_cell_angle_alpha   90.00000000
_cell_angle_beta   87.28173771
_cell_angle_gamma   90.00000000
_symmetry_Int_Tables_number   1
_chemical_formula_structural   Na3CuPCO7
_chemical_formula_sum   'Na6 Cu2 P2 C2 O14'
_cell_volume   308.50043381
_cell_formula_units_Z   2
loop_
 _symmetry_equiv_pos_site_id
 _symmetry_equiv_pos_as_xyz
  1  'x, y, z'
loop_
 _atom_site_type_symbol
 _atom_site_label
 _atom_site_symmetry_multiplicity
 _atom_site_fract_x
 _atom_site_fract_y
 _atom_site_fract_z
 _atom_site_occupancy
  Na  Na0  1  0.082735  0.250000  0.770184  1
  Na  Na1  1  0.265837  0.003110  0.243964  1
  Na  Na2  1  0.265837  0.496890  0.243964  1
  Na  Na3  1  0.734163  0.503110  0.756036  1
  Na  Na4  1  0.734163  0.996890  0.756036  1
  Na  Na5  1  0.917265  0.750000  0.229816  1
  Cu  Cu6  1  0.354887  0.750000  0.772547  1
  Cu  Cu7  1  0.645113  0.250000  0.227453  1
  P  P8  1  0.418747  0.250000  0.692915  1
  P  P9  1  0.581253  0.750000  0.307085  1
  C  C10  1  0.059972  0.750000  0.717265  1
  C  C11  1  0.940028  0.250000  0.282735  1
  O  O12  1  0.082856  0.250000  0.249162  1
  O  O13  1  0.140034  0.750000  0.922137  1
  O  O14  1  0.123901  0.750000  0.492922  1
  O  O15  1  0.319034  0.061767  0.769619  1
  O  O16  1  0.319034  0.438233  0.769619  1
  O  O17  1  0.444547  0.250000  0.392316  1
  O  O18  1  0.432941  0.750000  0.178593  1
  O  O19  1  0.567059  0.250000  0.821407  1
  O  O20  1  0.555453  0.750000  0.607684  1
  O  O21  1  0.680966  0.561767  0.230381  1
  O  O22  1  0.680966  0.938233  0.230381  1
  O  O23  1  0.876099  0.250000  0.507078  1
  O  O24  1  0.859966  0.250000  0.077863  1
  O  O25  1  0.917144  0.750000  0.750838  1
