# generated using pymatgen
data_Bi2(SO4)3
_symmetry_space_group_name_H-M   'P 1'
_cell_length_a   9.14581389
_cell_length_b   9.76973925
_cell_length_c   9.14581438
_cell_angle_alpha   62.09100986
_cell_angle_beta   60.00000182
_cell_angle_gamma   90.00000000
_symmetry_Int_Tables_number   1
_chemical_formula_structural   Bi2(SO4)3
_chemical_formula_sum   'Bi4 S6 O24'
_cell_volume   595.44130347
_cell_formula_units_Z   2
loop_
 _symmetry_equiv_pos_site_id
 _symmetry_equiv_pos_as_xyz
  1  'x, y, z'
loop_
 _atom_site_type_symbol
 _atom_site_label
 _atom_site_symmetry_multiplicity
 _atom_site_fract_x
 _atom_site_fract_y
 _atom_site_fract_z
 _atom_site_occupancy
  Bi  Bi0  1  0.348618  0.045854  0.302764  1
  Bi  Bi1  1  0.143633  0.430899  0.712734  1
  Bi  Bi2  1  0.856367  0.569101  0.287266  1
  Bi  Bi3  1  0.651382  0.954146  0.697236  1
  S  S4  1  0.034444  0.248709  0.210787  1
  S  S5  1  0.245231  0.751291  0.214265  1
  S  S6  1  0.459496  0.248709  0.506061  1
  S  S7  1  0.540504  0.751291  0.493939  1
  S  S8  1  0.754769  0.248709  0.785735  1
  S  S9  1  0.965556  0.751291  0.789213  1
  O  O10  1  0.023529  0.411367  0.178857  1
  O  O11  1  0.118475  0.260196  0.015823  1
  O  O12  1  0.134298  0.739804  0.141721  1
  O  O13  1  0.142905  0.194176  0.292873  1
  O  O14  1  0.204358  0.870881  0.276646  1
  O  O15  1  0.202387  0.588633  0.387839  1
  O  O16  1  0.435778  0.805824  0.051271  1
  O  O17  1  0.147528  0.870881  0.648113  1
  O  O18  1  0.276019  0.260196  0.605506  1
  O  O19  1  0.487049  0.194176  0.370046  1
  O  O20  1  0.518996  0.870881  0.333476  1
  O  O21  1  0.409775  0.588633  0.613754  1
  O  O22  1  0.590225  0.411367  0.386246  1
  O  O23  1  0.481004  0.129118  0.666524  1
  O  O24  1  0.512951  0.805824  0.629954  1
  O  O25  1  0.723981  0.739804  0.394494  1
  O  O26  1  0.852472  0.129118  0.351887  1
  O  O27  1  0.564222  0.194176  0.948729  1
  O  O28  1  0.797613  0.411367  0.612161  1
  O  O29  1  0.795642  0.129118  0.723354  1
  O  O30  1  0.857095  0.805824  0.707127  1
  O  O31  1  0.865702  0.260196  0.858279  1
  O  O32  1  0.881525  0.739804  0.984177  1
  O  O33  1  0.976471  0.588633  0.821143  1
