# generated using pymatgen
data_CoP2O7
_symmetry_space_group_name_H-M   'P 1'
_cell_length_a   8.20708389
_cell_length_b   5.19353874
_cell_length_c   13.32280356
_cell_angle_alpha   90.00000000
_cell_angle_beta   74.84049773
_cell_angle_gamma   90.00000000
_symmetry_Int_Tables_number   1
_chemical_formula_structural   CoP2O7
_chemical_formula_sum   'Co4 P8 O28'
_cell_volume   548.10768849
_cell_formula_units_Z   4
loop_
 _symmetry_equiv_pos_site_id
 _symmetry_equiv_pos_as_xyz
  1  'x, y, z'
loop_
 _atom_site_type_symbol
 _atom_site_label
 _atom_site_symmetry_multiplicity
 _atom_site_fract_x
 _atom_site_fract_y
 _atom_site_fract_z
 _atom_site_occupancy
  Co  Co0  1  0.089507  0.239601  0.639953  1
  Co  Co1  1  0.589507  0.260399  0.139953  1
  Co  Co2  1  0.410493  0.739601  0.860047  1
  Co  Co3  1  0.910493  0.760399  0.360047  1
  P  P4  1  0.028218  0.775297  0.802683  1
  P  P5  1  0.284195  0.229816  0.020112  1
  P  P6  1  0.215805  0.729816  0.479888  1
  P  P7  1  0.528218  0.724703  0.302683  1
  P  P8  1  0.471782  0.275297  0.697317  1
  P  P9  1  0.784195  0.270184  0.520112  1
  P  P10  1  0.715805  0.770184  0.979888  1
  P  P11  1  0.971782  0.224703  0.197317  1
  O  O12  1  0.023480  0.964146  0.234221  1
  O  O13  1  0.086457  0.260941  0.080275  1
  O  O14  1  0.006682  0.444174  0.265128  1
  O  O15  1  0.116163  0.798032  0.400694  1
  O  O16  1  0.310579  0.949205  0.985145  1
  O  O17  1  0.189421  0.449205  0.514855  1
  O  O18  1  0.190671  0.916540  0.570474  1
  O  O19  1  0.383837  0.298032  0.099306  1
  O  O20  1  0.208985  0.779998  0.812297  1
  O  O21  1  0.493318  0.944174  0.234872  1
  O  O22  1  0.291015  0.279998  0.687703  1
  O  O23  1  0.413543  0.760941  0.419725  1
  O  O24  1  0.476520  0.464146  0.265779  1
  O  O25  1  0.309329  0.416540  0.929526  1
  O  O26  1  0.690671  0.583460  0.070474  1
  O  O27  1  0.523480  0.535854  0.734221  1
  O  O28  1  0.586457  0.239059  0.580275  1
  O  O29  1  0.708985  0.720002  0.312297  1
  O  O30  1  0.506682  0.055826  0.765128  1
  O  O31  1  0.791015  0.220002  0.187703  1
  O  O32  1  0.616163  0.701968  0.900694  1
  O  O33  1  0.809329  0.083460  0.429526  1
  O  O34  1  0.810579  0.550795  0.485145  1
  O  O35  1  0.689421  0.050795  0.014855  1
  O  O36  1  0.883837  0.201968  0.599306  1
  O  O37  1  0.993318  0.555826  0.734872  1
  O  O38  1  0.913543  0.739059  0.919725  1
  O  O39  1  0.976520  0.035854  0.765779  1
