# generated using pymatgen
data_Li10Mn2V3Cr3O16
_symmetry_space_group_name_H-M   'P 1'
_cell_length_a   6.06766219
_cell_length_b   6.04933472
_cell_length_c   9.98708309
_cell_angle_alpha   89.60429993
_cell_angle_beta   89.39960834
_cell_angle_gamma   59.41821049
_symmetry_Int_Tables_number   1
_chemical_formula_structural   Li10Mn2V3Cr3O16
_chemical_formula_sum   'Li10 Mn2 V3 Cr3 O16'
_cell_volume   315.57145524
_cell_formula_units_Z   1
loop_
 _symmetry_equiv_pos_site_id
 _symmetry_equiv_pos_as_xyz
  1  'x, y, z'
loop_
 _atom_site_type_symbol
 _atom_site_label
 _atom_site_symmetry_multiplicity
 _atom_site_fract_x
 _atom_site_fract_y
 _atom_site_fract_z
 _atom_site_occupancy
  Li  Li0  1  0.014806  0.011842  0.514356  1
  Li  Li1  1  0.022599  0.992321  0.014551  1
  Li  Li2  1  0.350191  0.330565  0.225190  1
  Li  Li3  1  0.196274  0.613942  0.436401  1
  Li  Li4  1  0.213570  0.198754  0.440445  1
  Li  Li5  1  0.621720  0.187141  0.436836  1
  Li  Li6  1  0.680753  0.672234  0.724572  1
  Li  Li7  1  0.418174  0.801331  0.943078  1
  Li  Li8  1  0.817113  0.385499  0.937204  1
  Li  Li9  1  0.812508  0.811899  0.936247  1
  Mn  Mn10  1  0.344147  0.332357  0.976039  1
  Mn  Mn11  1  0.677470  0.663732  0.474309  1
  V  V12  1  0.179815  0.670122  0.713759  1
  V  V13  1  0.674233  0.174584  0.712352  1
  V  V14  1  0.847202  0.827376  0.213194  1
  Cr  Cr15  1  0.179307  0.172952  0.714588  1
  Cr  Cr16  1  0.351176  0.827161  0.214678  1
  Cr  Cr17  1  0.848355  0.329756  0.213509  1
  O  O18  1  0.176099  0.151772  0.099113  1
  O  O19  1  0.023229  0.500889  0.828276  1
  O  O20  1  0.176318  0.676868  0.102267  1
  O  O21  1  0.347621  0.329550  0.595750  1
  O  O22  1  0.502860  0.014224  0.829600  1
  O  O23  1  0.702360  0.151442  0.099025  1
  O  O24  1  0.503025  0.499408  0.828772  1
  O  O25  1  0.329672  0.846361  0.601102  1
  O  O26  1  0.520649  0.501240  0.329836  1
  O  O27  1  0.519743  0.984051  0.327053  1
  O  O28  1  0.679048  0.657686  0.097128  1
  O  O29  1  0.857532  0.327799  0.600528  1
  O  O30  1  0.000921  0.501607  0.326813  1
  O  O31  1  0.858903  0.847659  0.596074  1
  O  O32  1  0.017944  0.998725  0.327288  1
  O  O33  1  0.005145  0.014545  0.827495  1
