# generated using pymatgen
data_FePO4
_symmetry_space_group_name_H-M   'P 1'
_cell_length_a   8.75080414
_cell_length_b   6.59323700
_cell_length_c   4.78109206
_cell_angle_alpha   90.00049568
_cell_angle_beta   90.00056618
_cell_angle_gamma   89.99974042
_symmetry_Int_Tables_number   1
_chemical_formula_structural   FePO4
_chemical_formula_sum   'Fe4 P4 O16'
_cell_volume   275.85048803
_cell_formula_units_Z   4
loop_
 _symmetry_equiv_pos_site_id
 _symmetry_equiv_pos_as_xyz
  1  'x, y, z'
loop_
 _atom_site_type_symbol
 _atom_site_label
 _atom_site_symmetry_multiplicity
 _atom_site_fract_x
 _atom_site_fract_y
 _atom_site_fract_z
 _atom_site_occupancy
  Fe  Fe0  1  0.000000  0.000000  0.000000  1
  Fe  Fe1  1  0.000000  0.500000  0.000000  1
  Fe  Fe2  1  0.500000  0.000000  0.500000  1
  Fe  Fe3  1  0.500000  0.500000  0.500000  1
  P  P4  1  0.175839  0.249993  0.471618  1
  P  P5  1  0.324169  0.749992  0.971623  1
  P  P6  1  0.675831  0.250008  0.028377  1
  P  P7  1  0.824161  0.750007  0.528382  1
  O  O8  1  0.119660  0.056522  0.326240  1
  O  O9  1  0.119656  0.443460  0.326246  1
  O  O10  1  0.120099  0.249994  0.783147  1
  O  O11  1  0.144105  0.749992  0.940930  1
  O  O12  1  0.355901  0.249990  0.440903  1
  O  O13  1  0.379918  0.749995  0.283152  1
  O  O14  1  0.380347  0.556515  0.826245  1
  O  O15  1  0.380351  0.943450  0.826241  1
  O  O16  1  0.619649  0.056550  0.173759  1
  O  O17  1  0.619653  0.443485  0.173755  1
  O  O18  1  0.620082  0.250005  0.716848  1
  O  O19  1  0.644099  0.750010  0.559097  1
  O  O20  1  0.855895  0.250008  0.059070  1
  O  O21  1  0.879901  0.750006  0.216853  1
  O  O22  1  0.880344  0.556540  0.673754  1
  O  O23  1  0.880340  0.943478  0.673760  1
