# generated using pymatgen
data_Li8TiMn3(PO4)6
_symmetry_space_group_name_H-M   'P 1'
_cell_length_a   9.25212342
_cell_length_b   8.51529780
_cell_length_c   8.44641230
_cell_angle_alpha   60.77219564
_cell_angle_beta   63.02636137
_cell_angle_gamma   90.63229258
_symmetry_Int_Tables_number   1
_chemical_formula_structural   Li8TiMn3(PO4)6
_chemical_formula_sum   'Li8 Ti1 Mn3 P6 O24'
_cell_volume   493.88294708
_cell_formula_units_Z   1
loop_
 _symmetry_equiv_pos_site_id
 _symmetry_equiv_pos_as_xyz
  1  'x, y, z'
loop_
 _atom_site_type_symbol
 _atom_site_label
 _atom_site_symmetry_multiplicity
 _atom_site_fract_x
 _atom_site_fract_y
 _atom_site_fract_z
 _atom_site_occupancy
  Li  Li0  1  0.861721  0.263552  0.813109  1
  Li  Li1  1  0.897142  0.934829  0.374229  1
  Li  Li2  1  0.852781  0.664565  0.066168  1
  Li  Li3  1  0.585727  0.779044  0.670972  1
  Li  Li4  1  0.415240  0.196860  0.317689  1
  Li  Li5  1  0.148082  0.347104  0.933936  1
  Li  Li6  1  0.101422  0.069529  0.620271  1
  Li  Li7  1  0.143838  0.724188  0.195266  1
  Ti  Ti8  1  0.446077  0.153759  0.702722  1
  Mn  Mn9  1  0.964395  0.646056  0.693281  1
  Mn  Mn10  1  0.559853  0.849029  0.289881  1
  Mn  Mn11  1  0.034211  0.352750  0.308852  1
  P  P12  1  0.746020  0.955172  0.788691  1
  P  P13  1  0.750949  0.540854  0.507019  1
  P  P14  1  0.758734  0.248806  0.202603  1
  P  P15  1  0.243348  0.762260  0.796621  1
  P  P16  1  0.251282  0.448798  0.503931  1
  P  P17  1  0.255953  0.050786  0.199002  1
  O  O18  1  0.892208  0.140821  0.656053  1
  O  O19  1  0.799882  0.482908  0.674252  1
  O  O20  1  0.788558  0.843103  0.681102  1
  O  O21  1  0.897389  0.566863  0.299429  1
  O  O22  1  0.902821  0.199961  0.249164  1
  O  O23  1  0.711778  0.731640  0.447241  1
  O  O24  1  0.579805  0.005071  0.796616  1
  O  O25  1  0.590477  0.382374  0.600932  1
  O  O26  1  0.805264  0.461574  0.040727  1
  O  O27  1  0.731908  0.132913  0.119482  1
  O  O28  1  0.585826  0.189618  0.414278  1
  O  O29  1  0.720240  0.838516  0.010988  1
  O  O30  1  0.285984  0.158168  0.965792  1
  O  O31  1  0.413139  0.816472  0.598040  1
  O  O32  1  0.270357  0.887374  0.876897  1
  O  O33  1  0.190095  0.551321  0.969160  1
  O  O34  1  0.411290  0.593801  0.408007  1
  O  O35  1  0.419989  0.025051  0.191832  1
  O  O36  1  0.286305  0.246431  0.579269  1
  O  O37  1  0.096966  0.807835  0.751447  1
  O  O38  1  0.098977  0.424844  0.709715  1
  O  O39  1  0.199089  0.169770  0.297269  1
  O  O40  1  0.195614  0.492601  0.344403  1
  O  O41  1  0.109257  0.863031  0.333659  1
