# generated using pymatgen
data_LiVF5
_symmetry_space_group_name_H-M   'P 1'
_cell_length_a   5.26554553
_cell_length_b   8.94225201
_cell_length_c   8.09356748
_cell_angle_alpha   90.00000000
_cell_angle_beta   87.94153330
_cell_angle_gamma   90.00000000
_symmetry_Int_Tables_number   1
_chemical_formula_structural   LiVF5
_chemical_formula_sum   'Li4 V4 F20'
_cell_volume   380.84646259
_cell_formula_units_Z   4
loop_
 _symmetry_equiv_pos_site_id
 _symmetry_equiv_pos_as_xyz
  1  'x, y, z'
loop_
 _atom_site_type_symbol
 _atom_site_label
 _atom_site_symmetry_multiplicity
 _atom_site_fract_x
 _atom_site_fract_y
 _atom_site_fract_z
 _atom_site_occupancy
  Li  Li0  1  0.880376  0.407175  0.289185  1
  Li  Li1  1  0.619624  0.907175  0.210815  1
  Li  Li2  1  0.380376  0.092825  0.789185  1
  Li  Li3  1  0.119624  0.592825  0.710815  1
  V  V4  1  0.867561  0.870954  0.624237  1
  V  V5  1  0.632439  0.370954  0.875763  1
  V  V6  1  0.367561  0.629046  0.124237  1
  V  V7  1  0.132439  0.129046  0.375763  1
  F  F8  1  0.933625  0.286423  0.878234  1
  F  F9  1  0.961177  0.281563  0.491650  1
  F  F10  1  0.960353  0.199933  0.199334  1
  F  F11  1  0.825637  0.980886  0.407360  1
  F  F12  1  0.779310  0.523914  0.746189  1
  F  F13  1  0.720690  0.023914  0.753811  1
  F  F14  1  0.674363  0.480886  0.092640  1
  F  F15  1  0.566375  0.786423  0.621766  1
  F  F16  1  0.461177  0.218437  0.991650  1
  F  F17  1  0.539647  0.699933  0.300666  1
  F  F18  1  0.460353  0.300067  0.699334  1
  F  F19  1  0.538823  0.781563  0.008350  1
  F  F20  1  0.433625  0.213577  0.378233  1
  F  F21  1  0.325637  0.519114  0.907360  1
  F  F22  1  0.279310  0.976086  0.246189  1
  F  F23  1  0.220690  0.476086  0.253811  1
  F  F24  1  0.174363  0.019114  0.592640  1
  F  F25  1  0.039647  0.800067  0.800666  1
  F  F26  1  0.038823  0.718437  0.508350  1
  F  F27  1  0.066375  0.713577  0.121767  1
