# generated using pymatgen
data_Li2V(Si2O5)3
_symmetry_space_group_name_H-M   'P 1'
_cell_length_a   9.75243976
_cell_length_b   7.96770440
_cell_length_c   14.72718139
_cell_angle_alpha   90.00000000
_cell_angle_beta   40.97034919
_cell_angle_gamma   114.11051677
_symmetry_Int_Tables_number   1
_chemical_formula_structural   Li2V(Si2O5)3
_chemical_formula_sum   'Li4 V2 Si12 O30'
_cell_volume   586.90673992
_cell_formula_units_Z   2
loop_
 _symmetry_equiv_pos_site_id
 _symmetry_equiv_pos_as_xyz
  1  'x, y, z'
loop_
 _atom_site_type_symbol
 _atom_site_label
 _atom_site_symmetry_multiplicity
 _atom_site_fract_x
 _atom_site_fract_y
 _atom_site_fract_z
 _atom_site_occupancy
  Li  Li0  1  0.000675  0.000225  0.744912  1
  Li  Li1  1  0.000675  0.500451  0.744912  1
  Li  Li2  1  0.000100  0.000059  0.254240  1
  Li  Li3  1  0.000100  0.500040  0.254240  1
  V  V4  1  0.500440  0.000220  0.999700  1
  V  V5  1  0.500142  0.000071  0.499874  1
  Si  Si6  1  0.046211  0.273105  0.375570  1
  Si  Si7  1  0.045874  0.272937  0.578315  1
  Si  Si8  1  0.428447  0.651539  0.890018  1
  Si  Si9  1  0.428447  0.276908  0.890018  1
  Si  Si10  1  0.428052  0.651264  0.681770  1
  Si  Si11  1  0.428052  0.276788  0.681770  1
  Si  Si12  1  0.572514  0.348977  0.109471  1
  Si  Si13  1  0.572514  0.723537  0.109471  1
  Si  Si14  1  0.572053  0.348737  0.318157  1
  Si  Si15  1  0.572053  0.723316  0.318157  1
  Si  Si16  1  0.954488  0.727245  0.623926  1
  Si  Si17  1  0.954485  0.727242  0.421350  1
  O  O18  1  0.085832  0.792915  0.457007  1
  O  O19  1  0.168915  0.834458  0.233883  1
  O  O20  1  0.168981  0.834491  0.597104  1
  O  O21  1  0.298051  0.399025  0.975514  1
  O  O22  1  0.244165  0.536186  0.263429  1
  O  O23  1  0.244165  0.207980  0.263429  1
  O  O24  1  0.243872  0.207762  0.492702  1
  O  O25  1  0.243872  0.536109  0.492702  1
  O  O26  1  0.297413  0.398707  0.726867  1
  O  O27  1  0.324440  0.090467  0.659528  1
  O  O28  1  0.324440  0.733973  0.659528  1
  O  O29  1  0.324535  0.090218  0.015738  1
  O  O30  1  0.324535  0.734317  0.015738  1
  O  O31  1  0.358144  0.672528  0.820911  1
  O  O32  1  0.358144  0.185616  0.820911  1
  O  O33  1  0.642374  0.327731  0.178824  1
  O  O34  1  0.642374  0.814643  0.178824  1
  O  O35  1  0.675941  0.265887  0.340059  1
  O  O36  1  0.675941  0.910053  0.340059  1
  O  O37  1  0.676156  0.909791  0.983676  1
  O  O38  1  0.676156  0.266365  0.983676  1
  O  O39  1  0.703093  0.601546  0.023974  1
  O  O40  1  0.756722  0.464206  0.736204  1
  O  O41  1  0.756722  0.792517  0.736204  1
  O  O42  1  0.756292  0.464029  0.507295  1
  O  O43  1  0.756292  0.792263  0.507295  1
  O  O44  1  0.702484  0.601242  0.273245  1
  O  O45  1  0.831491  0.165746  0.765747  1
  O  O46  1  0.831669  0.165835  0.402420  1
  O  O47  1  0.914687  0.207343  0.542530  1
