# generated using pymatgen
data_LiV3(OF3)2
_symmetry_space_group_name_H-M   'P 1'
_cell_length_a   7.53081802
_cell_length_b   7.20749782
_cell_length_c   5.22802922
_cell_angle_alpha   90.55189421
_cell_angle_beta   91.38027547
_cell_angle_gamma   78.76346807
_symmetry_Int_Tables_number   1
_chemical_formula_structural   LiV3(OF3)2
_chemical_formula_sum   'Li2 V6 O4 F12'
_cell_volume   278.24500157
_cell_formula_units_Z   2
loop_
 _symmetry_equiv_pos_site_id
 _symmetry_equiv_pos_as_xyz
  1  'x, y, z'
loop_
 _atom_site_type_symbol
 _atom_site_label
 _atom_site_symmetry_multiplicity
 _atom_site_fract_x
 _atom_site_fract_y
 _atom_site_fract_z
 _atom_site_occupancy
  Li  Li0  1  0.165168  0.162186  0.779417  1
  Li  Li1  1  0.834832  0.837814  0.220583  1
  V  V2  1  0.183106  0.667040  0.716826  1
  V  V3  1  0.324653  0.829095  0.244611  1
  V  V4  1  0.685324  0.683511  0.747876  1
  V  V5  1  0.314676  0.316489  0.252124  1
  V  V6  1  0.675346  0.170905  0.755389  1
  V  V7  1  0.816894  0.332960  0.283174  1
  O  O8  1  0.297954  0.576300  0.411016  1
  O  O9  1  0.687432  0.927027  0.876047  1
  O  O10  1  0.312568  0.072973  0.123953  1
  O  O11  1  0.702046  0.423700  0.588984  1
  F  F12  1  0.192723  0.925577  0.574294  1
  F  F13  1  0.090480  0.801166  0.052076  1
  F  F14  1  0.426248  0.687673  0.903840  1
  F  F15  1  0.193015  0.421914  0.918521  1
  F  F16  1  0.068504  0.312155  0.416114  1
  F  F17  1  0.571959  0.794909  0.413456  1
  F  F18  1  0.428041  0.205091  0.586544  1
  F  F19  1  0.931496  0.687845  0.583886  1
  F  F20  1  0.806985  0.578086  0.081479  1
  F  F21  1  0.573752  0.312327  0.096160  1
  F  F22  1  0.909520  0.198834  0.947924  1
  F  F23  1  0.807277  0.074423  0.425706  1
