# generated using pymatgen
data_Li4Mn3WO8
_symmetry_space_group_name_H-M   'P 1'
_cell_length_a   10.43124065
_cell_length_b   10.43124048
_cell_length_c   14.66590325
_cell_angle_alpha   20.39598790
_cell_angle_beta   20.39598726
_cell_angle_gamma   35.13334670
_symmetry_Int_Tables_number   1
_chemical_formula_structural   Li4Mn3WO8
_chemical_formula_sum   'Li4 Mn3 W1 O8'
_cell_volume   167.85446437
_cell_formula_units_Z   1
loop_
 _symmetry_equiv_pos_site_id
 _symmetry_equiv_pos_as_xyz
  1  'x, y, z'
loop_
 _atom_site_type_symbol
 _atom_site_label
 _atom_site_symmetry_multiplicity
 _atom_site_fract_x
 _atom_site_fract_y
 _atom_site_fract_z
 _atom_site_occupancy
  Li  Li0  1  0.000000  0.000000  0.500000  1
  Li  Li1  1  0.000000  0.500000  0.500000  1
  Li  Li2  1  0.500000  0.000000  0.500000  1
  Li  Li3  1  0.500000  0.500000  0.500000  1
  Mn  Mn4  1  0.000000  0.500000  0.000000  1
  Mn  Mn5  1  0.500000  0.000000  0.000000  1
  Mn  Mn6  1  0.500000  0.500000  0.000000  1
  W  W7  1  0.000000  0.000000  0.000000  1
  O  O8  1  1.000000  1.000000  0.261117  1
  O  O9  1  0.000000  0.556035  0.217164  1
  O  O10  1  0.556035  0.000000  0.217164  1
  O  O11  1  0.000000  0.000000  0.738883  1
  O  O12  1  0.443965  0.443965  0.329234  1
  O  O13  1  1.000000  0.443965  0.782836  1
  O  O14  1  0.443965  1.000000  0.782836  1
  O  O15  1  0.556035  0.556035  0.670766  1
