# generated using pymatgen
data_Li5FeS4
_symmetry_space_group_name_H-M   'P 1'
_cell_length_a   7.94245630
_cell_length_b   7.83056882
_cell_length_c   5.87095913
_cell_angle_alpha   90.00000000
_cell_angle_beta   90.00000000
_cell_angle_gamma   90.00000000
_symmetry_Int_Tables_number   1
_chemical_formula_structural   Li5FeS4
_chemical_formula_sum   'Li10 Fe2 S8'
_cell_volume   365.13814244
_cell_formula_units_Z   2
loop_
 _symmetry_equiv_pos_site_id
 _symmetry_equiv_pos_as_xyz
  1  'x, y, z'
loop_
 _atom_site_type_symbol
 _atom_site_label
 _atom_site_symmetry_multiplicity
 _atom_site_fract_x
 _atom_site_fract_y
 _atom_site_fract_z
 _atom_site_occupancy
  Li  Li0  1  0.037636  0.007481  0.746665  1
  Li  Li1  1  0.037636  0.492519  0.746665  1
  Li  Li2  1  0.250000  0.750000  0.203787  1
  Li  Li3  1  0.462364  0.007481  0.746665  1
  Li  Li4  1  0.462364  0.492519  0.746665  1
  Li  Li5  1  0.537636  0.992519  0.253335  1
  Li  Li6  1  0.537636  0.507481  0.253335  1
  Li  Li7  1  0.750000  0.250000  0.796213  1
  Li  Li8  1  0.962364  0.992519  0.253335  1
  Li  Li9  1  0.962364  0.507481  0.253335  1
  Fe  Fe10  1  0.250000  0.250000  0.228555  1
  Fe  Fe11  1  0.750000  0.750000  0.771445  1
  S  S12  1  0.010740  0.250000  0.015955  1
  S  S13  1  0.250000  0.005893  0.442913  1
  S  S14  1  0.250000  0.494107  0.442913  1
  S  S15  1  0.489260  0.250000  0.015955  1
  S  S16  1  0.510740  0.750000  0.984045  1
  S  S17  1  0.750000  0.994107  0.557087  1
  S  S18  1  0.750000  0.505893  0.557087  1
  S  S19  1  0.989260  0.750000  0.984045  1
