# generated using pymatgen
data_Li3TiCo3O8
_symmetry_space_group_name_H-M   'P 1'
_cell_length_a   5.86380194
_cell_length_b   5.68226549
_cell_length_c   5.68226587
_cell_angle_alpha   60.00000220
_cell_angle_beta   61.01893164
_cell_angle_gamma   90.00000412
_symmetry_Int_Tables_number   1
_chemical_formula_structural   Li3TiCo3O8
_chemical_formula_sum   'Li3 Ti1 Co3 O8'
_cell_volume   135.90237910
_cell_formula_units_Z   1
loop_
 _symmetry_equiv_pos_site_id
 _symmetry_equiv_pos_as_xyz
  1  'x, y, z'
loop_
 _atom_site_type_symbol
 _atom_site_label
 _atom_site_symmetry_multiplicity
 _atom_site_fract_x
 _atom_site_fract_y
 _atom_site_fract_z
 _atom_site_occupancy
  Li  Li0  1  0.500000  0.000000  0.000000  1
  Li  Li1  1  0.500000  0.000000  0.500000  1
  Li  Li2  1  0.500000  0.500000  0.500000  1
  Ti  Ti3  1  0.000000  0.000000  0.000000  1
  Co  Co4  1  0.000000  0.000000  0.500000  1
  Co  Co5  1  0.000000  0.500000  0.000000  1
  Co  Co6  1  0.000000  0.500000  0.500000  1
  O  O7  1  0.218368  0.239870  0.021502  1
  O  O8  1  0.218368  0.239870  0.520259  1
  O  O9  1  0.218368  0.738628  0.021502  1
  O  O10  1  0.211818  0.737273  0.525455  1
  O  O11  1  0.788182  0.262727  0.474545  1
  O  O12  1  0.781632  0.261372  0.978498  1
  O  O13  1  0.781632  0.760130  0.479741  1
  O  O14  1  0.781632  0.760130  0.978498  1
