# generated using pymatgen
data_Li2TiNiO4
_symmetry_space_group_name_H-M   'P 1'
_cell_length_a   5.97078852
_cell_length_b   5.90677057
_cell_length_c   5.90714300
_cell_angle_alpha   90.79187628
_cell_angle_beta   59.67663875
_cell_angle_gamma   120.31979906
_symmetry_Int_Tables_number   1
_chemical_formula_structural   Li2TiNiO4
_chemical_formula_sum   'Li4 Ti2 Ni2 O8'
_cell_volume   146.88645029
_cell_formula_units_Z   2
loop_
 _symmetry_equiv_pos_site_id
 _symmetry_equiv_pos_as_xyz
  1  'x, y, z'
loop_
 _atom_site_type_symbol
 _atom_site_label
 _atom_site_symmetry_multiplicity
 _atom_site_fract_x
 _atom_site_fract_y
 _atom_site_fract_z
 _atom_site_occupancy
  Li  Li0  1  0.499995  0.500000  1.000000  1
  Li  Li1  1  0.999997  0.499996  0.499996  1
  Li  Li2  1  0.999978  0.499994  0.999996  1
  Li  Li3  1  0.499993  0.999991  0.000003  1
  Ti  Ti4  1  0.500009  0.500010  0.499994  1
  Ti  Ti5  1  0.000004  0.000008  0.999993  1
  Ni  Ni6  1  0.499997  0.999998  0.500005  1
  Ni  Ni7  1  0.000003  0.000002  0.499999  1
  O  O8  1  0.507092  0.742654  0.728893  1
  O  O9  1  0.978113  0.747134  0.247700  1
  O  O10  1  0.521859  0.747756  0.247200  1
  O  O11  1  0.007005  0.771081  0.757371  1
  O  O12  1  0.992987  0.228911  0.242629  1
  O  O13  1  0.478135  0.252241  0.752803  1
  O  O14  1  0.021881  0.252862  0.752301  1
  O  O15  1  0.492905  0.257343  0.271112  1
