# generated using pymatgen
data_MnV3(PO4)6
_symmetry_space_group_name_H-M   'P 1'
_cell_length_a   8.70881497
_cell_length_b   8.70881553
_cell_length_c   8.70881513
_cell_angle_alpha   58.47324166
_cell_angle_beta   58.47324494
_cell_angle_gamma   58.47324643
_symmetry_Int_Tables_number   1
_chemical_formula_structural   MnV3(PO4)6
_chemical_formula_sum   'Mn1 V3 P6 O24'
_cell_volume   450.73424452
_cell_formula_units_Z   1
loop_
 _symmetry_equiv_pos_site_id
 _symmetry_equiv_pos_as_xyz
  1  'x, y, z'
loop_
 _atom_site_type_symbol
 _atom_site_label
 _atom_site_symmetry_multiplicity
 _atom_site_fract_x
 _atom_site_fract_y
 _atom_site_fract_z
 _atom_site_occupancy
  Mn  Mn0  1  0.856398  0.856398  0.856398  1
  V  V1  1  0.141764  0.141764  0.141764  1
  V  V2  1  0.359590  0.359590  0.359590  1
  V  V3  1  0.639280  0.639280  0.639280  1
  P  P4  1  0.030436  0.751145  0.468738  1
  P  P5  1  0.468738  0.030436  0.751145  1
  P  P6  1  0.751145  0.468738  0.030436  1
  P  P7  1  0.245577  0.536457  0.966859  1
  P  P8  1  0.536457  0.966859  0.245577  1
  P  P9  1  0.966859  0.245577  0.536457  1
  O  O10  1  0.139662  0.281761  0.502520  1
  O  O11  1  0.281761  0.502520  0.139662  1
  O  O12  1  0.057451  0.924248  0.285666  1
  O  O13  1  0.502520  0.139662  0.281761  1
  O  O14  1  0.214446  0.573453  0.436783  1
  O  O15  1  0.014029  0.768809  0.643617  1
  O  O16  1  0.285666  0.057451  0.924248  1
  O  O17  1  0.436783  0.214446  0.573453  1
  O  O18  1  0.573453  0.436783  0.214446  1
  O  O19  1  0.223606  0.362103  0.988968  1
  O  O20  1  0.073218  0.720604  0.943061  1
  O  O21  1  0.362103  0.988968  0.223606  1
  O  O22  1  0.643617  0.014029  0.768809  1
  O  O23  1  0.924248  0.285666  0.057451  1
  O  O24  1  0.768809  0.643617  0.014029  1
  O  O25  1  0.427196  0.562397  0.784452  1
  O  O26  1  0.562397  0.784452  0.427196  1
  O  O27  1  0.720604  0.943061  0.073218  1
  O  O28  1  0.988968  0.223606  0.362103  1
  O  O29  1  0.784452  0.427196  0.562397  1
  O  O30  1  0.498954  0.856661  0.720093  1
  O  O31  1  0.943061  0.073218  0.720604  1
  O  O32  1  0.720093  0.498954  0.856661  1
  O  O33  1  0.856661  0.720093  0.498954  1
