# generated using pymatgen
data_TiMn9O20
_symmetry_space_group_name_H-M   'P 1'
_cell_length_a   5.82640982
_cell_length_b   5.82276432
_cell_length_c   24.05972505
_cell_angle_alpha   89.87249814
_cell_angle_beta   97.08677468
_cell_angle_gamma   120.19738637
_symmetry_Int_Tables_number   1
_chemical_formula_structural   TiMn9O20
_chemical_formula_sum   'Ti2 Mn18 O40'
_cell_volume   698.38444430
_cell_formula_units_Z   2
loop_
 _symmetry_equiv_pos_site_id
 _symmetry_equiv_pos_as_xyz
  1  'x, y, z'
loop_
 _atom_site_type_symbol
 _atom_site_label
 _atom_site_symmetry_multiplicity
 _atom_site_fract_x
 _atom_site_fract_y
 _atom_site_fract_z
 _atom_site_occupancy
  Ti  Ti0  1  0.244635  0.872925  0.124570  1
  Ti  Ti1  1  0.748796  0.873105  0.625036  1
  Mn  Mn2  1  0.347774  0.672772  0.024567  1
  Mn  Mn3  1  0.246850  0.374314  0.125080  1
  Mn  Mn4  1  0.050755  0.775710  0.325485  1
  Mn  Mn5  1  0.746204  0.874738  0.125080  1
  Mn  Mn6  1  0.147268  0.075325  0.225356  1
  Mn  Mn7  1  0.049226  0.274797  0.325182  1
  Mn  Mn8  1  0.549854  0.276513  0.325202  1
  Mn  Mn9  1  0.348754  0.670863  0.524534  1
  Mn  Mn10  1  0.848418  0.670761  0.524441  1
  Mn  Mn11  1  0.950058  0.472685  0.424916  1
  Mn  Mn12  1  0.649473  0.574091  0.725649  1
  Mn  Mn13  1  0.148840  0.074535  0.725712  1
  Mn  Mn14  1  0.448025  0.973688  0.924705  1
  Mn  Mn15  1  0.848589  0.170850  0.524286  1
  Mn  Mn16  1  0.447525  0.473507  0.924853  1
  Mn  Mn17  1  0.648379  0.073519  0.725676  1
  Mn  Mn18  1  0.548155  0.274887  0.825159  1
  Mn  Mn19  1  0.947712  0.473651  0.924742  1
  O  O20  1  0.085970  0.538950  0.076773  1
  O  O21  1  0.532807  0.986529  0.076874  1
  O  O22  1  0.331146  0.947407  0.278108  1
  O  O23  1  0.529266  0.544730  0.078208  1
  O  O24  1  0.443486  0.719251  0.166613  1
  O  O25  1  0.048851  0.029914  0.083342  1
  O  O26  1  0.209426  0.604209  0.372280  1
  O  O27  1  0.407137  0.209101  0.172876  1
  O  O28  1  0.959544  0.761756  0.172936  1
  O  O29  1  0.890036  0.944967  0.278561  1
  O  O30  1  0.330903  0.387500  0.278290  1
  O  O31  1  0.131932  0.783332  0.477769  1
  O  O32  1  0.131118  0.341858  0.477616  1
  O  O33  1  0.042649  0.517717  0.565534  1
  O  O34  1  0.244735  0.123318  0.366422  1
  O  O35  1  0.964545  0.204036  0.172020  1
  O  O36  1  0.769309  0.604856  0.372484  1
  O  O37  1  0.855978  0.429082  0.284258  1
  O  O38  1  0.653978  0.823395  0.483424  1
  O  O39  1  0.010783  0.002440  0.570737  1
  O  O40  1  0.765989  0.162090  0.371908  1
  O  O41  1  0.365973  0.962818  0.772623  1
  O  O42  1  0.563986  0.555206  0.570884  1
  O  O43  1  0.690343  0.341485  0.477354  1
  O  O44  1  0.486632  0.741784  0.679181  1
  O  O45  1  0.843002  0.921197  0.766654  1
  O  O46  1  0.934515  0.743065  0.679551  1
  O  O47  1  0.253454  0.626182  0.883701  1
  O  O48  1  0.564131  0.002966  0.570702  1
  O  O49  1  0.454494  0.226576  0.684571  1
  O  O50  1  0.367064  0.404439  0.772416  1
  O  O51  1  0.166378  0.802703  0.971795  1
  O  O52  1  0.807424  0.403438  0.772599  1
  O  O53  1  0.606640  0.802774  0.971757  1
  O  O54  1  0.164887  0.360907  0.971630  1
  O  O55  1  0.288724  0.143953  0.877784  1
  O  O56  1  0.933443  0.189887  0.679297  1
  O  O57  1  0.730722  0.586739  0.878028  1
  O  O58  1  0.729766  0.144614  0.877768  1
  O  O59  1  0.642063  0.320611  0.965777  1
