# generated using pymatgen
data_Li2MnF4
_symmetry_space_group_name_H-M   'P 1'
_cell_length_a   5.25147589
_cell_length_b   3.23770835
_cell_length_c   9.82249070
_cell_angle_alpha   90.10531085
_cell_angle_beta   83.25844154
_cell_angle_gamma   90.07464180
_symmetry_Int_Tables_number   1
_chemical_formula_structural   Li2MnF4
_chemical_formula_sum   'Li4 Mn2 F8'
_cell_volume   165.85420599
_cell_formula_units_Z   2
loop_
 _symmetry_equiv_pos_site_id
 _symmetry_equiv_pos_as_xyz
  1  'x, y, z'
loop_
 _atom_site_type_symbol
 _atom_site_label
 _atom_site_symmetry_multiplicity
 _atom_site_fract_x
 _atom_site_fract_y
 _atom_site_fract_z
 _atom_site_occupancy
  Li  Li0  1  0.261784  0.961772  0.074440  1
  Li  Li1  1  0.231026  0.962563  0.422582  1
  Li  Li2  1  0.731002  0.036062  0.922326  1
  Li  Li3  1  0.759298  0.037245  0.573094  1
  Mn  Mn4  1  0.245808  0.527363  0.748637  1
  Mn  Mn5  1  0.746911  0.472431  0.248551  1
  F  F6  1  0.108647  0.461406  0.135418  1
  F  F7  1  0.115826  0.026070  0.621378  1
  F  F8  1  0.399070  0.462212  0.375486  1
  F  F9  1  0.617221  0.972096  0.121673  1
  F  F10  1  0.376374  0.027105  0.876746  1
  F  F11  1  0.607161  0.537650  0.635067  1
  F  F12  1  0.877135  0.974061  0.376384  1
  F  F13  1  0.898472  0.536672  0.875612  1
