# generated using pymatgen
data_LiP2WO7
_symmetry_space_group_name_H-M   'P 1'
_cell_length_a   7.23915293
_cell_length_b   8.58250076
_cell_length_c   9.10444922
_cell_angle_alpha   90.00000000
_cell_angle_beta   113.37077710
_cell_angle_gamma   90.00000000
_symmetry_Int_Tables_number   1
_chemical_formula_structural   LiP2WO7
_chemical_formula_sum   'Li4 P8 W4 O28'
_cell_volume   519.25136762
_cell_formula_units_Z   4
loop_
 _symmetry_equiv_pos_site_id
 _symmetry_equiv_pos_as_xyz
  1  'x, y, z'
loop_
 _atom_site_type_symbol
 _atom_site_label
 _atom_site_symmetry_multiplicity
 _atom_site_fract_x
 _atom_site_fract_y
 _atom_site_fract_z
 _atom_site_occupancy
  Li  Li0  1  0.119242  0.952456  0.832208  1
  Li  Li1  1  0.380758  0.452456  0.667792  1
  Li  Li2  1  0.619242  0.547544  0.332208  1
  Li  Li3  1  0.880758  0.047544  0.167792  1
  P  P4  1  0.069644  0.726508  0.529062  1
  P  P5  1  0.430356  0.226508  0.970938  1
  P  P6  1  0.184607  0.733872  0.246651  1
  P  P7  1  0.315393  0.233872  0.253349  1
  P  P8  1  0.684607  0.766128  0.746651  1
  P  P9  1  0.815393  0.266128  0.753349  1
  P  P10  1  0.569644  0.773492  0.029062  1
  P  P11  1  0.930356  0.273492  0.470938  1
  W  W12  1  0.128580  0.576798  0.886551  1
  W  W13  1  0.371420  0.076798  0.613449  1
  W  W14  1  0.628580  0.923202  0.386551  1
  W  W15  1  0.871420  0.423202  0.113449  1
  O  O16  1  0.141944  0.595754  0.654042  1
  O  O17  1  0.160402  0.886206  0.591376  1
  O  O18  1  0.338618  0.766614  0.948445  1
  O  O19  1  0.161382  0.266614  0.551555  1
  O  O20  1  0.339598  0.386206  0.908624  1
  O  O21  1  0.148885  0.662805  0.398139  1
  O  O22  1  0.358056  0.095754  0.845958  1
  O  O23  1  0.084701  0.235625  0.197761  1
  O  O24  1  0.076741  0.883813  0.191448  1
  O  O25  1  0.100976  0.596522  0.121876  1
  O  O26  1  0.648885  0.837195  0.898139  1
  O  O27  1  0.399024  0.096522  0.378124  1
  O  O28  1  0.584701  0.264375  0.697761  1
  O  O29  1  0.576741  0.616187  0.691448  1
  O  O30  1  0.423259  0.383813  0.308552  1
  O  O31  1  0.415299  0.735625  0.302239  1
  O  O32  1  0.600976  0.903478  0.621876  1
  O  O33  1  0.351115  0.162805  0.101861  1
  O  O34  1  0.899024  0.403478  0.878124  1
  O  O35  1  0.923259  0.116187  0.808552  1
  O  O36  1  0.915299  0.764375  0.802239  1
  O  O37  1  0.641944  0.904246  0.154042  1
  O  O38  1  0.851115  0.337195  0.601861  1
  O  O39  1  0.660402  0.613794  0.091376  1
  O  O40  1  0.838618  0.733386  0.448445  1
  O  O41  1  0.661382  0.233386  0.051555  1
  O  O42  1  0.839598  0.113794  0.408624  1
  O  O43  1  0.858056  0.404246  0.345958  1
