# generated using pymatgen
data_Li2Cr3NiO8
_symmetry_space_group_name_H-M   'P 1'
_cell_length_a   8.33552737
_cell_length_b   8.38919614
_cell_length_c   8.30941278
_cell_angle_alpha   90.15752501
_cell_angle_beta   89.67839908
_cell_angle_gamma   90.11358386
_symmetry_Int_Tables_number   1
_chemical_formula_structural   Li2Cr3NiO8
_chemical_formula_sum   'Li8 Cr12 Ni4 O32'
_cell_volume   581.05125190
_cell_formula_units_Z   4
loop_
 _symmetry_equiv_pos_site_id
 _symmetry_equiv_pos_as_xyz
  1  'x, y, z'
loop_
 _atom_site_type_symbol
 _atom_site_label
 _atom_site_symmetry_multiplicity
 _atom_site_fract_x
 _atom_site_fract_y
 _atom_site_fract_z
 _atom_site_occupancy
  Li  Li0  1  0.997568  0.999820  0.003667  1
  Li  Li1  1  0.250595  0.250687  0.251936  1
  Li  Li2  1  0.249520  0.750219  0.748549  1
  Li  Li3  1  0.496370  0.001724  0.497201  1
  Li  Li4  1  0.496274  0.499950  0.999377  1
  Li  Li5  1  0.750010  0.247722  0.747591  1
  Li  Li6  1  0.750682  0.750181  0.249815  1
  Li  Li7  1  0.999234  0.498476  0.502330  1
  Cr  Cr8  1  0.129728  0.128307  0.628415  1
  Cr  Cr9  1  0.127475  0.377294  0.879569  1
  Cr  Cr10  1  0.128060  0.625713  0.130560  1
  Cr  Cr11  1  0.376562  0.380176  0.622509  1
  Cr  Cr12  1  0.374946  0.621499  0.373629  1
  Cr  Cr13  1  0.374730  0.877701  0.123527  1
  Cr  Cr14  1  0.627215  0.378234  0.370912  1
  Cr  Cr15  1  0.627415  0.122427  0.120639  1
  Cr  Cr16  1  0.626952  0.867300  0.874458  1
  Cr  Cr17  1  0.876147  0.128130  0.376523  1
  Cr  Cr18  1  0.878197  0.870867  0.624898  1
  Cr  Cr19  1  0.878970  0.624700  0.882248  1
  Ni  Ni20  1  0.124049  0.875140  0.372362  1
  Ni  Ni21  1  0.372635  0.125008  0.876542  1
  Ni  Ni22  1  0.623189  0.625167  0.624518  1
  Ni  Ni23  1  0.871857  0.373373  0.123445  1
  O  O24  1  0.102437  0.129782  0.394742  1
  O  O25  1  0.111149  0.888234  0.604608  1
  O  O26  1  0.116308  0.615715  0.894054  1
  O  O27  1  0.121784  0.139859  0.855295  1
  O  O28  1  0.123444  0.389714  0.103573  1
  O  O29  1  0.139103  0.364848  0.640839  1
  O  O30  1  0.132939  0.625751  0.352520  1
  O  O31  1  0.136826  0.863980  0.143141  1
  O  O32  1  0.352995  0.143909  0.623603  1
  O  O33  1  0.355196  0.367798  0.859458  1
  O  O34  1  0.358987  0.644292  0.130226  1
  O  O35  1  0.376562  0.603277  0.612444  1
  O  O36  1  0.355013  0.863223  0.358463  1
  O  O37  1  0.390836  0.385009  0.385587  1
  O  O38  1  0.394962  0.104096  0.130835  1
  O  O39  1  0.389973  0.877414  0.894621  1
  O  O40  1  0.603213  0.370506  0.605670  1
  O  O41  1  0.614671  0.606028  0.378777  1
  O  O42  1  0.613582  0.884471  0.108662  1
  O  O43  1  0.622716  0.358004  0.142952  1
  O  O44  1  0.624650  0.104663  0.895946  1
  O  O45  1  0.642557  0.133413  0.359946  1
  O  O46  1  0.646027  0.880881  0.644788  1
  O  O47  1  0.641534  0.643753  0.875587  1
  O  O48  1  0.858786  0.357073  0.373702  1
  O  O49  1  0.855875  0.130896  0.140386  1
  O  O50  1  0.866682  0.856643  0.864013  1
  O  O51  1  0.890383  0.891972  0.386851  1
  O  O52  1  0.873820  0.647519  0.643700  1
  O  O53  1  0.890829  0.106310  0.615306  1
  O  O54  1  0.893792  0.398786  0.867026  1
  O  O55  1  0.893987  0.622500  0.107596  1
