# generated using pymatgen
data_LiV(CO3)2
_symmetry_space_group_name_H-M   'P 1'
_cell_length_a   4.43194838
_cell_length_b   5.91128696
_cell_length_c   7.65523169
_cell_angle_alpha   90.00000000
_cell_angle_beta   88.73369700
_cell_angle_gamma   90.00000000
_symmetry_Int_Tables_number   1
_chemical_formula_structural   LiV(CO3)2
_chemical_formula_sum   'Li2 V2 C4 O12'
_cell_volume   200.50675060
_cell_formula_units_Z   2
loop_
 _symmetry_equiv_pos_site_id
 _symmetry_equiv_pos_as_xyz
  1  'x, y, z'
loop_
 _atom_site_type_symbol
 _atom_site_label
 _atom_site_symmetry_multiplicity
 _atom_site_fract_x
 _atom_site_fract_y
 _atom_site_fract_z
 _atom_site_occupancy
  Li  Li0  1  0.000000  0.500000  0.000000  1
  Li  Li1  1  0.500000  0.000000  0.500000  1
  V  V2  1  0.000000  0.500000  0.500000  1
  V  V3  1  0.500000  0.000000  0.000000  1
  C  C4  1  0.001604  0.131415  0.752230  1
  C  C5  1  0.498396  0.631415  0.747770  1
  C  C6  1  0.501604  0.368585  0.252230  1
  C  C7  1  0.998396  0.868585  0.247770  1
  O  O8  1  0.232725  0.450638  0.260802  1
  O  O9  1  0.122437  0.191171  0.603370  1
  O  O10  1  0.150757  0.164237  0.894689  1
  O  O11  1  0.349243  0.664237  0.605311  1
  O  O12  1  0.377563  0.691171  0.896630  1
  O  O13  1  0.267275  0.950638  0.239198  1
  O  O14  1  0.732725  0.049362  0.760802  1
  O  O15  1  0.622437  0.308829  0.103370  1
  O  O16  1  0.650757  0.335763  0.394689  1
  O  O17  1  0.849243  0.835763  0.105311  1
  O  O18  1  0.877563  0.808829  0.396630  1
  O  O19  1  0.767275  0.549362  0.739198  1
