# generated using pymatgen
data_Li3Cr(Si2O5)3
_symmetry_space_group_name_H-M   'P 1'
_cell_length_a   11.09501936
_cell_length_b   11.09501936
_cell_length_c   10.16776248
_cell_angle_alpha   90.00000000
_cell_angle_beta   90.00000000
_cell_angle_gamma   79.02390339
_symmetry_Int_Tables_number   1
_chemical_formula_structural   Li3Cr(Si2O5)3
_chemical_formula_sum   'Li12 Cr4 Si24 O60'
_cell_volume   1228.74928306
_cell_formula_units_Z   4
loop_
 _symmetry_equiv_pos_site_id
 _symmetry_equiv_pos_as_xyz
  1  'x, y, z'
loop_
 _atom_site_type_symbol
 _atom_site_label
 _atom_site_symmetry_multiplicity
 _atom_site_fract_x
 _atom_site_fract_y
 _atom_site_fract_z
 _atom_site_occupancy
  Li  Li0  1  0.241110  0.758890  0.000000  1
  Li  Li1  1  0.487726  0.987726  0.250000  1
  Li  Li2  1  0.012274  0.512274  0.750000  1
  Li  Li3  1  0.258890  0.741110  0.500000  1
  Li  Li4  1  0.429325  0.429325  0.262186  1
  Li  Li5  1  0.570675  0.570675  0.737814  1
  Li  Li6  1  0.070675  0.070675  0.762186  1
  Li  Li7  1  0.929325  0.929325  0.237814  1
  Li  Li8  1  0.741110  0.258890  0.500000  1
  Li  Li9  1  0.512274  0.012274  0.750000  1
  Li  Li10  1  0.987726  0.487726  0.250000  1
  Li  Li11  1  0.758890  0.241110  0.000000  1
  Cr  Cr12  1  0.160578  0.660578  0.250000  1
  Cr  Cr13  1  0.339422  0.839422  0.750000  1
  Cr  Cr14  1  0.839422  0.339422  0.750000  1
  Cr  Cr15  1  0.660578  0.160578  0.250000  1
  Si  Si16  1  0.188430  0.958259  0.197434  1
  Si  Si17  1  0.041741  0.811570  0.802566  1
  Si  Si18  1  0.311570  0.541741  0.697434  1
  Si  Si19  1  0.458259  0.688430  0.302566  1
  Si  Si20  1  0.519182  0.741756  0.012771  1
  Si  Si21  1  0.019182  0.241756  0.487229  1
  Si  Si22  1  0.758244  0.980818  0.512771  1
  Si  Si23  1  0.258244  0.480818  0.987229  1
  Si  Si24  1  0.202154  0.423501  0.455533  1
  Si  Si25  1  0.702154  0.923501  0.044467  1
  Si  Si26  1  0.076499  0.297846  0.955533  1
  Si  Si27  1  0.576499  0.797846  0.544467  1
  Si  Si28  1  0.423501  0.202154  0.455533  1
  Si  Si29  1  0.923501  0.702154  0.044467  1
  Si  Si30  1  0.297846  0.076499  0.955533  1
  Si  Si31  1  0.797846  0.576499  0.544467  1
  Si  Si32  1  0.741756  0.519182  0.012771  1
  Si  Si33  1  0.241756  0.019182  0.487229  1
  Si  Si34  1  0.980818  0.758244  0.512771  1
  Si  Si35  1  0.480818  0.258244  0.987229  1
  Si  Si36  1  0.541741  0.311570  0.697434  1
  Si  Si37  1  0.688430  0.458259  0.302566  1
  Si  Si38  1  0.811570  0.041741  0.802566  1
  Si  Si39  1  0.958259  0.188430  0.197434  1
  O  O40  1  0.278463  0.989027  0.079941  1
  O  O41  1  0.010973  0.721537  0.920059  1
  O  O42  1  0.027088  0.734777  0.667184  1
  O  O43  1  0.265223  0.972912  0.332816  1
  O  O44  1  0.152348  0.827817  0.168222  1
  O  O45  1  0.172183  0.847652  0.831778  1
  O  O46  1  0.095097  0.746570  0.415981  1
  O  O47  1  0.253430  0.904903  0.584019  1
  O  O48  1  0.148132  0.494588  0.325255  1
  O  O49  1  0.648132  0.994588  0.174745  1
  O  O50  1  0.505412  0.851868  0.674745  1
  O  O51  1  0.005412  0.351868  0.825255  1
  O  O52  1  0.246570  0.595097  0.084019  1
  O  O53  1  0.404903  0.753430  0.915981  1
  O  O54  1  0.347652  0.672183  0.668222  1
  O  O55  1  0.327817  0.652348  0.331778  1
  O  O56  1  0.234777  0.527088  0.832816  1
  O  O57  1  0.472912  0.765223  0.167184  1
  O  O58  1  0.221537  0.510973  0.579941  1
  O  O59  1  0.489027  0.778463  0.420059  1
  O  O60  1  0.158764  0.392200  0.015194  1
  O  O61  1  0.107800  0.341236  0.515194  1
  O  O62  1  0.658764  0.892200  0.484806  1
  O  O63  1  0.607800  0.841236  0.984806  1
  O  O64  1  0.603534  0.603534  0.993850  1
  O  O65  1  0.338367  0.338367  0.417649  1
  O  O66  1  0.942622  0.942622  0.796341  1
  O  O67  1  0.057378  0.057378  0.203659  1
  O  O68  1  0.103534  0.103534  0.506150  1
  O  O69  1  0.161633  0.161633  0.917649  1
  O  O70  1  0.442622  0.442622  0.703659  1
  O  O71  1  0.396466  0.396466  0.006150  1
  O  O72  1  0.557378  0.557378  0.296341  1
  O  O73  1  0.896466  0.896466  0.493850  1
  O  O74  1  0.661633  0.661633  0.582351  1
  O  O75  1  0.838367  0.838367  0.082351  1
  O  O76  1  0.892200  0.658764  0.484806  1
  O  O77  1  0.341236  0.107800  0.515194  1
  O  O78  1  0.392200  0.158764  0.015194  1
  O  O79  1  0.841236  0.607800  0.984806  1
  O  O80  1  0.778463  0.489027  0.420059  1
  O  O81  1  0.510973  0.221537  0.579941  1
  O  O82  1  0.527088  0.234777  0.832816  1
  O  O83  1  0.765223  0.472912  0.167184  1
  O  O84  1  0.652348  0.327817  0.331778  1
  O  O85  1  0.672183  0.347652  0.668222  1
  O  O86  1  0.595097  0.246570  0.084019  1
  O  O87  1  0.753430  0.404903  0.915981  1
  O  O88  1  0.351868  0.005412  0.825255  1
  O  O89  1  0.494588  0.148132  0.325255  1
  O  O90  1  0.994588  0.648132  0.174745  1
  O  O91  1  0.851868  0.505412  0.674745  1
  O  O92  1  0.746570  0.095097  0.415981  1
  O  O93  1  0.904903  0.253430  0.584019  1
  O  O94  1  0.827817  0.152348  0.168222  1
  O  O95  1  0.847652  0.172183  0.831778  1
  O  O96  1  0.734777  0.027088  0.667184  1
  O  O97  1  0.972912  0.265223  0.332816  1
  O  O98  1  0.721537  0.010973  0.920059  1
  O  O99  1  0.989027  0.278463  0.079941  1
