# generated using pymatgen
data_Li2Mn3CrO8
_symmetry_space_group_name_H-M   'P 1'
_cell_length_a   5.88544889
_cell_length_b   5.88391706
_cell_length_c   9.44447820
_cell_angle_alpha   89.94186809
_cell_angle_beta   90.02905827
_cell_angle_gamma   119.99139122
_symmetry_Int_Tables_number   1
_chemical_formula_structural   Li2Mn3CrO8
_chemical_formula_sum   'Li4 Mn6 Cr2 O16'
_cell_volume   283.26451891
_cell_formula_units_Z   2
loop_
 _symmetry_equiv_pos_site_id
 _symmetry_equiv_pos_as_xyz
  1  'x, y, z'
loop_
 _atom_site_type_symbol
 _atom_site_label
 _atom_site_symmetry_multiplicity
 _atom_site_fract_x
 _atom_site_fract_y
 _atom_site_fract_z
 _atom_site_occupancy
  Li  Li0  1  0.333328  0.666590  0.892155  1
  Li  Li1  1  0.000019  0.000128  0.997777  1
  Li  Li2  1  0.999981  0.000109  0.497777  1
  Li  Li3  1  0.666672  0.333262  0.392155  1
  Mn  Mn4  1  0.170641  0.829526  0.214873  1
  Mn  Mn5  1  0.170505  0.341041  0.214916  1
  Mn  Mn6  1  0.658911  0.829580  0.214893  1
  Mn  Mn7  1  0.341089  0.170669  0.714893  1
  Mn  Mn8  1  0.829359  0.658885  0.714873  1
  Mn  Mn9  1  0.829495  0.170535  0.714916  1
  Cr  Cr10  1  0.333268  0.666866  0.488451  1
  Cr  Cr11  1  0.666732  0.333598  0.988451  1
  O  O12  1  0.161626  0.838357  0.602402  1
  O  O13  1  0.039863  0.519870  0.337845  1
  O  O14  1  0.333185  0.666151  0.101108  1
  O  O15  1  0.000117  0.000404  0.308742  1
  O  O16  1  0.999883  0.000287  0.808742  1
  O  O17  1  0.161414  0.322975  0.602520  1
  O  O18  1  0.480168  0.960301  0.338016  1
  O  O19  1  0.479952  0.519857  0.337756  1
  O  O20  1  0.323064  0.161536  0.102467  1
  O  O21  1  0.676936  0.838472  0.602467  1
  O  O22  1  0.519832  0.480133  0.838016  1
  O  O23  1  0.520048  0.039904  0.837756  1
  O  O24  1  0.666815  0.332967  0.601108  1
  O  O25  1  0.838374  0.676729  0.102402  1
  O  O26  1  0.960137  0.480007  0.837845  1
  O  O27  1  0.838586  0.161561  0.102520  1
