# generated using pymatgen
data_LiCr3(FeO4)2
_symmetry_space_group_name_H-M   'P 1'
_cell_length_a   5.99744848
_cell_length_b   5.99744848
_cell_length_c   6.00355068
_cell_angle_alpha   60.03361759
_cell_angle_beta   60.03361759
_cell_angle_gamma   60.00000000
_symmetry_Int_Tables_number   1
_chemical_formula_structural   LiCr3(FeO4)2
_chemical_formula_sum   'Li1 Cr3 Fe2 O8'
_cell_volume   152.77304196
_cell_formula_units_Z   1
loop_
 _symmetry_equiv_pos_site_id
 _symmetry_equiv_pos_as_xyz
  1  'x, y, z'
loop_
 _atom_site_type_symbol
 _atom_site_label
 _atom_site_symmetry_multiplicity
 _atom_site_fract_x
 _atom_site_fract_y
 _atom_site_fract_z
 _atom_site_occupancy
  Li  Li0  1  0.249764  0.249764  0.250709  1
  Cr  Cr1  1  0.621955  0.134166  0.621925  1
  Cr  Cr2  1  0.134166  0.621955  0.621925  1
  Cr  Cr3  1  0.621955  0.621955  0.621925  1
  Fe  Fe4  1  0.000049  0.000049  -0.000148  1
  Fe  Fe5  1  0.620513  0.620513  0.138461  1
  O  O6  1  0.840164  0.385766  0.388305  1
  O  O7  1  0.385766  0.385766  0.388305  1
  O  O8  1  0.385766  0.840164  0.388305  1
  O  O9  1  0.387935  0.387935  0.836194  1
  O  O10  1  0.866965  0.866965  0.399105  1
  O  O11  1  0.869233  0.396537  0.864997  1
  O  O12  1  0.396537  0.869233  0.864997  1
  O  O13  1  0.869233  0.869233  0.864997  1
