# generated using pymatgen
data_Li3MnFe3O8
_symmetry_space_group_name_H-M   'P 1'
_cell_length_a   10.39892074
_cell_length_b   10.39896131
_cell_length_c   14.72369146
_cell_angle_alpha   19.27860354
_cell_angle_beta   19.27857481
_cell_angle_gamma   33.22916843
_symmetry_Int_Tables_number   1
_chemical_formula_structural   Li3MnFe3O8
_chemical_formula_sum   'Li3 Mn1 Fe3 O8'
_cell_volume   150.30280665
_cell_formula_units_Z   1
loop_
 _symmetry_equiv_pos_site_id
 _symmetry_equiv_pos_as_xyz
  1  'x, y, z'
loop_
 _atom_site_type_symbol
 _atom_site_label
 _atom_site_symmetry_multiplicity
 _atom_site_fract_x
 _atom_site_fract_y
 _atom_site_fract_z
 _atom_site_occupancy
  Li  Li0  1  -0.000000  0.500000  0.500000  1
  Li  Li1  1  0.499999  -0.000000  0.500001  1
  Li  Li2  1  0.500001  0.500002  0.499998  1
  Mn  Mn3  1  0.000003  -0.000008  0.000005  1
  Fe  Fe4  1  0.999999  0.500004  0.999995  1
  Fe  Fe5  1  0.500001  -0.000003  0.000001  1
  Fe  Fe6  1  0.499999  0.500002  -0.000000  1
  O  O7  1  0.999996  0.999996  0.258086  1
  O  O8  1  0.999987  0.527188  0.242836  1
  O  O9  1  0.527179  0.999991  0.242841  1
  O  O10  1  0.000003  0.000004  0.741913  1
  O  O11  1  0.472826  0.472828  0.297186  1
  O  O12  1  0.000013  0.472815  0.757161  1
  O  O13  1  0.472823  0.000013  0.757156  1
  O  O14  1  0.527171  0.527170  0.702817  1
