# generated using pymatgen
data_Li3MnV(PO4)3
_symmetry_space_group_name_H-M   'P 1'
_cell_length_a   9.03689200
_cell_length_b   8.49580892
_cell_length_c   8.49580896
_cell_angle_alpha   120.00000297
_cell_angle_beta   89.99999741
_cell_angle_gamma   61.96164086
_symmetry_Int_Tables_number   1
_chemical_formula_structural   Li3MnV(PO4)3
_chemical_formula_sum   'Li6 Mn2 V2 P6 O24'
_cell_volume   474.43123344
_cell_formula_units_Z   2
loop_
 _symmetry_equiv_pos_site_id
 _symmetry_equiv_pos_as_xyz
  1  'x, y, z'
loop_
 _atom_site_type_symbol
 _atom_site_label
 _atom_site_symmetry_multiplicity
 _atom_site_fract_x
 _atom_site_fract_y
 _atom_site_fract_z
 _atom_site_occupancy
  Li  Li0  1  0.149861  0.189783  0.921849  1
  Li  Li1  1  0.149861  0.582207  0.660358  1
  Li  Li2  1  0.149861  0.928290  0.267932  1
  Li  Li3  1  0.852751  0.066972  0.737317  1
  Li  Li4  1  0.852751  0.409932  0.329655  1
  Li  Li5  1  0.852751  0.817593  0.080276  1
  Mn  Mn6  1  0.559497  0.293668  0.146834  1
  Mn  Mn7  1  0.952466  0.698356  0.349178  1
  V  V8  1  0.047464  0.301691  0.650846  1
  V  V9  1  0.442723  0.704851  0.852426  1
  P  P10  1  0.251333  0.202498  0.246228  1
  P  P11  1  0.251333  0.502439  0.956270  1
  P  P12  1  0.251333  0.792397  0.546169  1
  P  P13  1  0.749686  0.213461  0.464422  1
  P  P14  1  0.749686  0.501275  0.036853  1
  P  P15  1  0.749686  0.785892  0.749039  1
  O  O16  1  0.097014  0.349539  0.203495  1
  O  O17  1  0.192128  0.291992  0.461806  1
  O  O18  1  0.192128  0.346066  0.830186  1
  O  O19  1  0.097014  0.699491  0.146044  1
  O  O20  1  0.097014  0.756942  0.553447  1
  O  O21  1  0.420371  0.187398  0.199237  1
  O  O22  1  0.275464  0.604911  0.855131  1
  O  O23  1  0.420371  0.380391  0.988161  1
  O  O24  1  0.192128  0.977686  0.515880  1
  O  O25  1  0.275464  0.869405  0.749780  1
  O  O26  1  0.420371  0.591468  0.392230  1
  O  O27  1  0.275464  0.974755  0.119625  1
  O  O28  1  0.734720  0.003549  0.872546  1
  O  O29  1  0.577012  0.430363  0.615268  1
  O  O30  1  0.734720  0.134278  0.261731  1
  O  O31  1  0.796255  0.045007  0.508137  1
  O  O32  1  0.577012  0.607892  0.992625  1
  O  O33  1  0.734720  0.392734  0.131003  1
  O  O34  1  0.577012  0.807721  0.815095  1
  O  O35  1  0.902689  0.256773  0.467356  1
  O  O36  1  0.902689  0.307894  0.840538  1
  O  O37  1  0.796255  0.666877  0.158738  1
  O  O38  1  0.796255  0.695608  0.536868  1
  O  O39  1  0.902689  0.629955  0.789417  1
