# generated using pymatgen
data_Li4MnSn3(PO4)4
_symmetry_space_group_name_H-M   'P 1'
_cell_length_a   4.87788332
_cell_length_b   11.05747334
_cell_length_c   6.72340210
_cell_angle_alpha   90.00000000
_cell_angle_beta   90.00000000
_cell_angle_gamma   90.90856614
_symmetry_Int_Tables_number   1
_chemical_formula_structural   Li4MnSn3(PO4)4
_chemical_formula_sum   'Li4 Mn1 Sn3 P4 O16'
_cell_volume   362.59498084
_cell_formula_units_Z   1
loop_
 _symmetry_equiv_pos_site_id
 _symmetry_equiv_pos_as_xyz
  1  'x, y, z'
loop_
 _atom_site_type_symbol
 _atom_site_label
 _atom_site_symmetry_multiplicity
 _atom_site_fract_x
 _atom_site_fract_y
 _atom_site_fract_z
 _atom_site_occupancy
  Li  Li0  1  0.984546  0.993525  0.011998  1
  Li  Li1  1  0.984546  0.993525  0.488002  1
  Li  Li2  1  0.502355  0.506877  0.498890  1
  Li  Li3  1  0.502355  0.506877  0.001110  1
  Mn  Mn4  1  0.041318  0.720991  0.750000  1
  Sn  Sn5  1  0.469152  0.216135  0.750000  1
  Sn  Sn6  1  0.538492  0.785741  0.250000  1
  Sn  Sn7  1  0.957686  0.295294  0.250000  1
  P  P8  1  0.088086  0.585767  0.250000  1
  P  P9  1  0.388948  0.073285  0.250000  1
  P  P10  1  0.620081  0.904734  0.750000  1
  P  P11  1  0.906750  0.436539  0.750000  1
  O  O12  1  0.242526  0.460057  0.250000  1
  O  O13  1  0.196285  0.656282  0.061808  1
  O  O14  1  0.196285  0.656282  0.438192  1
  O  O15  1  0.220812  0.442002  0.750000  1
  O  O16  1  0.305263  0.892271  0.750000  1
  O  O17  1  0.277523  0.143172  0.063979  1
  O  O18  1  0.277523  0.143172  0.436021  1
  O  O19  1  0.235718  0.947015  0.250000  1
  O  O20  1  0.730424  0.039525  0.750000  1
  O  O21  1  0.756769  0.842241  0.567292  1
  O  O22  1  0.756769  0.842241  0.932708  1
  O  O23  1  0.700415  0.057555  0.250000  1
  O  O24  1  0.777043  0.564002  0.250000  1
  O  O25  1  0.783750  0.365348  0.565923  1
  O  O26  1  0.783750  0.365348  0.934077  1
  O  O27  1  0.774824  0.564198  0.750000  1
