# generated using pymatgen
data_Li3Mn5OF11
_symmetry_space_group_name_H-M   'P 1'
_cell_length_a   5.36355995
_cell_length_b   5.76603972
_cell_length_c   9.66128103
_cell_angle_alpha   86.10278830
_cell_angle_beta   72.53567696
_cell_angle_gamma   116.86396009
_symmetry_Int_Tables_number   1
_chemical_formula_structural   Li3Mn5OF11
_chemical_formula_sum   'Li3 Mn5 O1 F11'
_cell_volume   246.87494941
_cell_formula_units_Z   1
loop_
 _symmetry_equiv_pos_site_id
 _symmetry_equiv_pos_as_xyz
  1  'x, y, z'
loop_
 _atom_site_type_symbol
 _atom_site_label
 _atom_site_symmetry_multiplicity
 _atom_site_fract_x
 _atom_site_fract_y
 _atom_site_fract_z
 _atom_site_occupancy
  Li  Li0  1  0.022580  0.543624  0.498185  1
  Li  Li1  1  0.516168  0.268857  0.257408  1
  Li  Li2  1  0.530597  0.816290  0.778829  1
  Mn  Mn3  1  0.295868  0.719627  0.149987  1
  Mn  Mn4  1  0.985375  0.008613  0.999140  1
  Mn  Mn5  1  0.311207  0.270530  0.639932  1
  Mn  Mn6  1  0.801751  0.997338  0.410328  1
  Mn  Mn7  1  0.775165  0.505337  0.894976  1
  O  O8  1  0.611262  0.757750  0.956055  1
  F  F9  1  0.091347  0.833291  0.349125  1
  F  F10  1  0.209270  0.387277  0.307818  1
  F  F11  1  0.232380  0.926635  0.791350  1
  F  F12  1  0.381141  0.143994  0.047614  1
  F  F13  1  0.388634  0.651264  0.537858  1
  F  F14  1  0.095829  0.366848  0.847800  1
  F  F15  1  0.891501  0.578943  0.108387  1
  F  F16  1  0.598115  0.251184  0.443847  1
  F  F17  1  0.714903  0.501649  0.686642  1
  F  F18  1  0.704144  0.011078  0.209095  1
  F  F19  1  0.892524  0.084274  0.610499  1
