# generated using pymatgen
data_Li4Mn2Co5O12
_symmetry_space_group_name_H-M   'P 1'
_cell_length_a   5.00743841
_cell_length_b   8.86290831
_cell_length_c   9.86533015
_cell_angle_alpha   90.06182476
_cell_angle_beta   101.00814087
_cell_angle_gamma   89.98284943
_symmetry_Int_Tables_number   1
_chemical_formula_structural   Li4Mn2Co5O12
_chemical_formula_sum   'Li8 Mn4 Co10 O24'
_cell_volume   429.77170481
_cell_formula_units_Z   2
loop_
 _symmetry_equiv_pos_site_id
 _symmetry_equiv_pos_as_xyz
  1  'x, y, z'
loop_
 _atom_site_type_symbol
 _atom_site_label
 _atom_site_symmetry_multiplicity
 _atom_site_fract_x
 _atom_site_fract_y
 _atom_site_fract_z
 _atom_site_occupancy
  Li  Li0  1  0.248794  0.087211  0.989417  1
  Li  Li1  1  0.756692  0.075271  0.511465  1
  Li  Li2  1  0.491639  0.419705  0.754500  1
  Li  Li3  1  0.742318  0.424761  0.512788  1
  Li  Li4  1  0.251751  0.587404  0.510149  1
  Li  Li5  1  0.744368  0.575478  0.988566  1
  Li  Li6  1  0.008558  0.919520  0.745782  1
  Li  Li7  1  0.757729  0.924309  0.986942  1
  Mn  Mn8  1  0.000914  0.253167  0.752713  1
  Mn  Mn9  1  0.498521  0.249886  0.248225  1
  Mn  Mn10  1  0.001101  0.750028  0.251858  1
  Mn  Mn11  1  0.499163  0.753081  0.747192  1
  Co  Co12  1  0.993329  0.080391  0.253337  1
  Co  Co13  1  0.500329  0.080912  0.747521  1
  Co  Co14  1  0.254980  0.249891  0.508616  1
  Co  Co15  1  0.004579  0.417715  0.248788  1
  Co  Co16  1  0.742855  0.263379  0.989189  1
  Co  Co17  1  0.999579  0.580868  0.752350  1
  Co  Co18  1  0.506597  0.580038  0.246471  1
  Co  Co19  1  0.245342  0.749776  0.991709  1
  Co  Co20  1  0.757203  0.763421  0.510944  1
  Co  Co21  1  0.495435  0.917553  0.251653  1
  O  O22  1  0.135159  0.101664  0.639950  1
  O  O23  1  0.380352  0.100148  0.362124  1
  O  O24  1  0.376136  0.232310  0.859344  1
  O  O25  1  0.128657  0.235294  0.136555  1
  O  O26  1  0.621264  0.099018  0.131005  1
  O  O27  1  0.864885  0.096908  0.863112  1
  O  O28  1  0.104714  0.411802  0.637180  1
  O  O29  1  0.629761  0.235969  0.635837  1
  O  O30  1  0.389977  0.405737  0.366224  1
  O  O31  1  0.866746  0.244057  0.366488  1
  O  O32  1  0.617045  0.411719  0.139212  1
  O  O33  1  0.880405  0.411270  0.861167  1
  O  O34  1  0.119184  0.599615  0.138197  1
  O  O35  1  0.364688  0.602068  0.860114  1
  O  O36  1  0.123598  0.732039  0.640557  1
  O  O37  1  0.634955  0.596616  0.636978  1
  O  O38  1  0.371378  0.735968  0.363269  1
  O  O39  1  0.877984  0.599846  0.369218  1
  O  O40  1  0.109886  0.905258  0.133603  1
  O  O41  1  0.870035  0.736282  0.864101  1
  O  O42  1  0.395245  0.912194  0.862674  1
  O  O43  1  0.633130  0.743556  0.133366  1
  O  O44  1  0.619665  0.911015  0.638761  1
  O  O45  1  0.883375  0.912490  0.360789  1
