# generated using pymatgen
data_LiV2(OF)3
_symmetry_space_group_name_H-M   'P 1'
_cell_length_a   5.11075213
_cell_length_b   5.14327921
_cell_length_c   13.50720527
_cell_angle_alpha   91.66421545
_cell_angle_beta   91.11717160
_cell_angle_gamma   61.43737370
_symmetry_Int_Tables_number   1
_chemical_formula_structural   LiV2(OF)3
_chemical_formula_sum   'Li3 V6 O9 F9'
_cell_volume   311.70139730
_cell_formula_units_Z   3
loop_
 _symmetry_equiv_pos_site_id
 _symmetry_equiv_pos_as_xyz
  1  'x, y, z'
loop_
 _atom_site_type_symbol
 _atom_site_label
 _atom_site_symmetry_multiplicity
 _atom_site_fract_x
 _atom_site_fract_y
 _atom_site_fract_z
 _atom_site_occupancy
  Li  Li0  1  0.310506  0.347329  0.374361  1
  Li  Li1  1  0.660636  0.676337  0.038092  1
  Li  Li2  1  0.970957  0.013654  0.709154  1
  V  V3  1  0.314326  0.321722  0.666453  1
  V  V4  1  0.028457  0.978037  0.486890  1
  V  V5  1  0.011664  0.015275  0.003256  1
  V  V6  1  0.370437  0.323323  0.153663  1
  V  V7  1  0.590335  0.685728  0.825722  1
  V  V8  1  0.657008  0.672508  0.332551  1
  O  O9  1  0.087079  0.243268  0.591206  1
  O  O10  1  0.292992  0.047045  0.084439  1
  O  O11  1  0.342754  0.726962  0.914824  1
  O  O12  1  0.435264  0.580727  0.257292  1
  O  O13  1  0.598780  0.397341  0.749327  1
  O  O14  1  0.317159  0.960830  0.417614  1
  O  O15  1  0.655996  0.304828  0.083868  1
  O  O16  1  0.379129  0.995709  0.755581  1
  O  O17  1  0.935025  0.714871  0.419102  1
  F  F18  1  0.033409  0.394986  0.256892  1
  F  F19  1  0.036398  0.667752  0.084369  1
  F  F20  1  0.260084  0.670495  0.586682  1
  F  F21  1  0.609421  0.010521  0.253712  1
  F  F22  1  0.688424  0.059115  0.592072  1
  F  F23  1  0.697838  0.325411  0.421501  1
  F  F24  1  0.917335  0.353685  0.916888  1
  F  F25  1  0.738407  0.909498  0.918904  1
  F  F26  1  0.989553  0.630136  0.750331  1
