# generated using pymatgen
data_MnP2O7
_symmetry_space_group_name_H-M   'P 1'
_cell_length_a   4.91284616
_cell_length_b   12.47101830
_cell_length_c   7.91261637
_cell_angle_alpha   90.00000000
_cell_angle_beta   88.99044203
_cell_angle_gamma   90.00000000
_symmetry_Int_Tables_number   1
_chemical_formula_structural   MnP2O7
_chemical_formula_sum   'Mn4 P8 O28'
_cell_volume   484.71646330
_cell_formula_units_Z   4
loop_
 _symmetry_equiv_pos_site_id
 _symmetry_equiv_pos_as_xyz
  1  'x, y, z'
loop_
 _atom_site_type_symbol
 _atom_site_label
 _atom_site_symmetry_multiplicity
 _atom_site_fract_x
 _atom_site_fract_y
 _atom_site_fract_z
 _atom_site_occupancy
  Mn  Mn0  1  0.221237  0.351099  0.154095  1
  Mn  Mn1  1  0.278763  0.851099  0.345905  1
  Mn  Mn2  1  0.721237  0.148901  0.654095  1
  Mn  Mn3  1  0.778763  0.648901  0.845905  1
  P  P4  1  0.199156  0.980321  0.698297  1
  P  P5  1  0.219599  0.305282  0.556212  1
  P  P6  1  0.280401  0.805282  0.943788  1
  P  P7  1  0.300844  0.480321  0.801703  1
  P  P8  1  0.699156  0.519679  0.198297  1
  P  P9  1  0.719599  0.194718  0.056212  1
  P  P10  1  0.780401  0.694718  0.443788  1
  P  P11  1  0.800844  0.019679  0.301703  1
  O  O12  1  0.016859  0.229968  0.065295  1
  O  O13  1  0.028262  0.240435  0.671800  1
  O  O14  1  0.090022  0.560348  0.863171  1
  O  O15  1  0.075227  0.967814  0.251889  1
  O  O16  1  0.107044  0.312530  0.378252  1
  O  O17  1  0.160545  0.889065  0.571092  1
  O  O18  1  0.204434  0.427095  0.628069  1
  O  O19  1  0.295566  0.927095  0.871931  1
  O  O20  1  0.339455  0.389065  0.928908  1
  O  O21  1  0.392956  0.812530  0.121748  1
  O  O22  1  0.409978  0.060348  0.636829  1
  O  O23  1  0.424773  0.467814  0.248111  1
  O  O24  1  0.471738  0.740435  0.828200  1
  O  O25  1  0.483141  0.729968  0.434705  1
  O  O26  1  0.516859  0.270032  0.565295  1
  O  O27  1  0.528262  0.259565  0.171800  1
  O  O28  1  0.575227  0.532186  0.751889  1
  O  O29  1  0.590022  0.939652  0.363171  1
  O  O30  1  0.607044  0.187470  0.878252  1
  O  O31  1  0.660545  0.610935  0.071092  1
  O  O32  1  0.704434  0.072905  0.128069  1
  O  O33  1  0.795566  0.572905  0.371931  1
  O  O34  1  0.839455  0.110935  0.428908  1
  O  O35  1  0.892956  0.687470  0.621748  1
  O  O36  1  0.924773  0.032186  0.748111  1
  O  O37  1  0.909978  0.439652  0.136829  1
  O  O38  1  0.971738  0.759565  0.328200  1
  O  O39  1  0.983141  0.770032  0.934705  1
