# generated using pymatgen
data_Li2MgCr3Se3(SO8)3
_symmetry_space_group_name_H-M   'P 1'
_cell_length_a   9.17260590
_cell_length_b   9.31007524
_cell_length_c   9.08139743
_cell_angle_alpha   55.48391133
_cell_angle_beta   55.79236959
_cell_angle_gamma   55.86579046
_symmetry_Int_Tables_number   1
_chemical_formula_structural   Li2MgCr3Se3(SO8)3
_chemical_formula_sum   'Li2 Mg1 Cr3 Se3 S3 O24'
_cell_volume   493.84817642
_cell_formula_units_Z   1
loop_
 _symmetry_equiv_pos_site_id
 _symmetry_equiv_pos_as_xyz
  1  'x, y, z'
loop_
 _atom_site_type_symbol
 _atom_site_label
 _atom_site_symmetry_multiplicity
 _atom_site_fract_x
 _atom_site_fract_y
 _atom_site_fract_z
 _atom_site_occupancy
  Li  Li0  1  0.230782  0.830363  0.572911  1
  Li  Li1  1  0.577946  0.239270  0.806842  1
  Mg  Mg2  1  0.832680  0.847490  0.860941  1
  Cr  Cr3  1  0.154745  0.150656  0.146918  1
  Cr  Cr4  1  0.355308  0.345863  0.367508  1
  Cr  Cr5  1  0.648145  0.648187  0.635531  1
  Se  Se6  1  0.054319  0.745107  0.452912  1
  Se  Se7  1  0.242232  0.541461  0.967960  1
  Se  Se8  1  0.743646  0.455356  0.047277  1
  S  S9  1  0.529765  0.969036  0.251518  1
  S  S10  1  0.453359  0.045966  0.754643  1
  S  S11  1  0.969828  0.243326  0.530310  1
  O  O12  1  0.022801  0.967951  0.302782  1
  O  O13  1  0.039902  0.724860  0.656690  1
  O  O14  1  0.019967  0.678590  0.006254  1
  O  O15  1  0.340726  0.975534  0.291744  1
  O  O16  1  0.491946  0.898221  0.709556  1
  O  O17  1  0.271358  0.597790  0.373075  1
  O  O18  1  0.647805  0.003287  0.046155  1
  O  O19  1  0.379891  0.634914  0.743376  1
  O  O20  1  0.311320  0.515337  0.117912  1
  O  O21  1  0.105198  0.298274  0.510789  1
  O  O22  1  0.616832  0.780208  0.372668  1
  O  O23  1  0.299890  0.329807  0.972680  1
  O  O24  1  0.697685  0.661697  0.032050  1
  O  O25  1  0.363915  0.234636  0.627842  1
  O  O26  1  0.894280  0.697262  0.475212  1
  O  O27  1  0.698757  0.468845  0.885028  1
  O  O28  1  0.614766  0.344756  0.267419  1
  O  O29  1  0.320396  0.022093  0.956684  1
  O  O30  1  0.773639  0.356186  0.618165  1
  O  O31  1  0.496533  0.111262  0.303857  1
  O  O32  1  0.631012  0.044051  0.730310  1
  O  O33  1  0.973076  0.319817  0.007457  1
  O  O34  1  0.992501  0.280054  0.335864  1
  O  O35  1  0.000749  0.041787  0.654956  1
