# generated using pymatgen
data_Cu2(SO4)3
_symmetry_space_group_name_H-M   'P 1'
_cell_length_a   8.18585314
_cell_length_b   8.82181690
_cell_length_c   8.18585386
_cell_angle_alpha   117.64261943
_cell_angle_beta   59.99999894
_cell_angle_gamma   117.64261977
_symmetry_Int_Tables_number   1
_chemical_formula_structural   Cu2(SO4)3
_chemical_formula_sum   'Cu4 S6 O24'
_cell_volume   432.27448689
_cell_formula_units_Z   2
loop_
 _symmetry_equiv_pos_site_id
 _symmetry_equiv_pos_as_xyz
  1  'x, y, z'
loop_
 _atom_site_type_symbol
 _atom_site_label
 _atom_site_symmetry_multiplicity
 _atom_site_fract_x
 _atom_site_fract_y
 _atom_site_fract_z
 _atom_site_occupancy
  Cu  Cu0  1  0.145948  0.437844  0.145948  1
  Cu  Cu1  1  0.346311  0.038932  0.346311  1
  Cu  Cu2  1  0.653689  0.961068  0.653689  1
  Cu  Cu3  1  0.854052  0.562156  0.854052  1
  S  S4  1  0.039889  0.246787  0.458167  1
  S  S5  1  0.541833  0.753213  0.251267  1
  S  S6  1  0.251267  0.753213  0.960111  1
  S  S7  1  0.748733  0.246787  0.039889  1
  S  S8  1  0.458167  0.246787  0.748733  1
  S  S9  1  0.960111  0.753213  0.541833  1
  O  O10  1  0.207531  0.895834  0.155141  1
  O  O11  1  0.155141  0.895834  0.533162  1
  O  O12  1  0.017909  0.421320  0.606264  1
  O  O13  1  0.134261  0.265859  0.256733  1
  O  O14  1  0.533162  0.895834  0.207531  1
  O  O15  1  0.125136  0.734141  0.865739  1
  O  O16  1  0.393736  0.578680  0.202853  1
  O  O17  1  0.169935  0.200176  0.492889  1
  O  O18  1  0.507111  0.799824  0.462648  1
  O  O19  1  0.202853  0.578680  0.982091  1
  O  O20  1  0.743267  0.734141  0.125136  1
  O  O21  1  0.462648  0.799824  0.830065  1
  O  O22  1  0.537352  0.200176  0.169935  1
  O  O23  1  0.256733  0.265859  0.874864  1
  O  O24  1  0.797147  0.421320  0.017909  1
  O  O25  1  0.492889  0.200176  0.537352  1
  O  O26  1  0.830065  0.799824  0.507111  1
  O  O27  1  0.606264  0.421320  0.797147  1
  O  O28  1  0.874864  0.265859  0.134261  1
  O  O29  1  0.466838  0.104166  0.792469  1
  O  O30  1  0.865739  0.734141  0.743267  1
  O  O31  1  0.982091  0.578680  0.393736  1
  O  O32  1  0.844859  0.104166  0.466838  1
  O  O33  1  0.792469  0.104166  0.844859  1
