# generated using pymatgen
data_Mn2F7
_symmetry_space_group_name_H-M   'P 1'
_cell_length_a   8.68252441
_cell_length_b   6.36002217
_cell_length_c   5.35270628
_cell_angle_alpha   96.43197407
_cell_angle_beta   75.52402829
_cell_angle_gamma   108.94459753
_symmetry_Int_Tables_number   1
_chemical_formula_structural   Mn2F7
_chemical_formula_sum   'Mn4 F14'
_cell_volume   270.54175230
_cell_formula_units_Z   2
loop_
 _symmetry_equiv_pos_site_id
 _symmetry_equiv_pos_as_xyz
  1  'x, y, z'
loop_
 _atom_site_type_symbol
 _atom_site_label
 _atom_site_symmetry_multiplicity
 _atom_site_fract_x
 _atom_site_fract_y
 _atom_site_fract_z
 _atom_site_occupancy
  Mn  Mn0  1  0.174532  0.973696  0.288388  1
  Mn  Mn1  1  0.306677  0.217397  0.786268  1
  Mn  Mn2  1  0.693323  0.782603  0.213732  1
  Mn  Mn3  1  0.825468  0.026304  0.711612  1
  F  F4  1  0.140326  0.707826  0.391923  1
  F  F5  1  0.084064  0.085563  0.684380  1
  F  F6  1  0.263842  0.925094  0.916872  1
  F  F7  1  0.206298  0.255853  0.144107  1
  F  F8  1  0.308227  0.478878  0.712779  1
  F  F9  1  0.490753  0.698671  0.162097  1
  F  F10  1  0.376266  0.125379  0.447694  1
  F  F11  1  0.623734  0.874621  0.552306  1
  F  F12  1  0.509247  0.301329  0.837903  1
  F  F13  1  0.691773  0.521122  0.287221  1
  F  F14  1  0.793702  0.744147  0.855893  1
  F  F15  1  0.736158  0.074906  0.083128  1
  F  F16  1  0.915936  0.914437  0.315620  1
  F  F17  1  0.859674  0.292174  0.608077  1
