# generated using pymatgen
data_LiSiSbCO7
_symmetry_space_group_name_H-M   'P 1'
_cell_length_a   9.02015493
_cell_length_b   6.46403073
_cell_length_c   5.21733902
_cell_angle_alpha   90.00000000
_cell_angle_beta   86.18610988
_cell_angle_gamma   90.00000000
_symmetry_Int_Tables_number   1
_chemical_formula_structural   LiSiSbCO7
_chemical_formula_sum   'Li2 Si2 Sb2 C2 O14'
_cell_volume   303.53138276
_cell_formula_units_Z   2
loop_
 _symmetry_equiv_pos_site_id
 _symmetry_equiv_pos_as_xyz
  1  'x, y, z'
loop_
 _atom_site_type_symbol
 _atom_site_label
 _atom_site_symmetry_multiplicity
 _atom_site_fract_x
 _atom_site_fract_y
 _atom_site_fract_z
 _atom_site_occupancy
  Li  Li0  1  0.199293  0.490977  0.229475  1
  Li  Li1  1  0.800707  0.990977  0.770525  1
  Si  Si2  1  0.429717  0.249932  0.724581  1
  Si  Si3  1  0.570283  0.749932  0.275419  1
  Sb  Sb4  1  0.340179  0.754360  0.797566  1
  Sb  Sb5  1  0.659821  0.254360  0.202434  1
  C  C6  1  0.066918  0.748339  0.723834  1
  C  C7  1  0.933082  0.248339  0.276166  1
  O  O8  1  0.064434  0.274661  0.314491  1
  O  O9  1  0.123762  0.745840  0.955828  1
  O  O10  1  0.176381  0.725344  0.534783  1
  O  O11  1  0.321695  0.054464  0.798496  1
  O  O12  1  0.329539  0.447789  0.826763  1
  O  O13  1  0.409842  0.742200  0.144895  1
  O  O14  1  0.470618  0.263945  0.411347  1
  O  O15  1  0.529382  0.763945  0.588653  1
  O  O16  1  0.590158  0.242200  0.855105  1
  O  O17  1  0.670461  0.947789  0.173237  1
  O  O18  1  0.678305  0.554464  0.201504  1
  O  O19  1  0.823619  0.225344  0.465217  1
  O  O20  1  0.876238  0.245840  0.044172  1
  O  O21  1  0.935566  0.774661  0.685509  1
