# generated using pymatgen
data_LiFePHO5
_symmetry_space_group_name_H-M   'P 1'
_cell_length_a   5.42603283
_cell_length_b   7.41552646
_cell_length_c   5.16605891
_cell_angle_alpha   108.63036388
_cell_angle_beta   98.17224591
_cell_angle_gamma   106.20145165
_symmetry_Int_Tables_number   1
_chemical_formula_structural   LiFePHO5
_chemical_formula_sum   'Li2 Fe2 P2 H2 O10'
_cell_volume   182.93960808
_cell_formula_units_Z   2
loop_
 _symmetry_equiv_pos_site_id
 _symmetry_equiv_pos_as_xyz
  1  'x, y, z'
loop_
 _atom_site_type_symbol
 _atom_site_label
 _atom_site_symmetry_multiplicity
 _atom_site_fract_x
 _atom_site_fract_y
 _atom_site_fract_z
 _atom_site_occupancy
  Li  Li0  1  0.397503  0.821800  0.747610  1
  Li  Li1  1  0.602497  0.178200  0.252390  1
  Fe  Fe2  1  0.000000  0.500000  0.000000  1
  Fe  Fe3  1  0.000000  0.000000  0.000000  1
  P  P4  1  0.362544  0.233490  0.677373  1
  P  P5  1  0.637456  0.766510  0.322627  1
  H  H6  1  0.059857  0.336406  0.356145  1
  H  H7  1  0.940143  0.663594  0.643855  1
  O  O8  1  0.051743  0.725826  0.841444  1
  O  O9  1  0.208471  0.382783  0.729911  1
  O  O10  1  0.342476  0.660257  0.308869  1
  O  O11  1  0.247242  0.073916  0.369234  1
  O  O12  1  0.343029  0.120678  0.886248  1
  O  O13  1  0.656971  0.879322  0.113752  1
  O  O14  1  0.752758  0.926084  0.630766  1
  O  O15  1  0.657524  0.339743  0.691131  1
  O  O16  1  0.791529  0.617217  0.270089  1
  O  O17  1  0.948257  0.274174  0.158556  1
