# generated using pymatgen
data_Li2MnV2(PO4)3
_symmetry_space_group_name_H-M   'P 1'
_cell_length_a   8.55595920
_cell_length_b   8.63518652
_cell_length_c   8.63518642
_cell_angle_alpha   62.40331267
_cell_angle_beta   63.07424641
_cell_angle_gamma   63.07425062
_symmetry_Int_Tables_number   1
_chemical_formula_structural   Li2MnV2(PO4)3
_chemical_formula_sum   'Li4 Mn2 V4 P6 O24'
_cell_volume   479.66740485
_cell_formula_units_Z   2
loop_
 _symmetry_equiv_pos_site_id
 _symmetry_equiv_pos_as_xyz
  1  'x, y, z'
loop_
 _atom_site_type_symbol
 _atom_site_label
 _atom_site_symmetry_multiplicity
 _atom_site_fract_x
 _atom_site_fract_y
 _atom_site_fract_z
 _atom_site_occupancy
  Li  Li0  1  0.750000  0.141233  0.358767  1
  Li  Li1  1  0.250000  0.847169  0.652831  1
  Li  Li2  1  0.652797  0.248399  0.847519  1
  Li  Li3  1  0.847203  0.652481  0.251601  1
  Mn  Mn4  1  0.012846  -0.000018  0.992327  1
  Mn  Mn5  1  0.487154  0.507673  0.500018  1
  V  V6  1  0.145490  0.145580  0.144501  1
  V  V7  1  0.354510  0.355499  0.354420  1
  V  V8  1  0.647225  0.648390  0.651230  1
  V  V9  1  0.852775  0.848770  0.851610  1
  P  P10  1  0.058996  0.747835  0.442571  1
  P  P11  1  0.441004  0.057429  0.752165  1
  P  P12  1  0.750000  0.441891  0.058109  1
  P  P13  1  0.250000  0.541549  0.958451  1
  P  P14  1  0.549951  0.958753  0.251704  1
  P  P15  1  0.950049  0.248296  0.541247  1
  O  O16  1  0.114463  0.309519  0.485346  1
  O  O17  1  0.324529  0.499675  0.108676  1
  O  O18  1  0.067431  0.913821  0.255580  1
  O  O19  1  0.533183  0.106127  0.316122  1
  O  O20  1  0.036907  0.804342  0.597404  1
  O  O21  1  0.249434  0.593697  0.417583  1
  O  O22  1  0.250566  0.082417  0.906303  1
  O  O23  1  0.432569  0.244420  0.586179  1
  O  O24  1  0.175471  0.391324  0.000325  1
  O  O25  1  0.598375  0.415623  0.253966  1
  O  O26  1  0.100463  0.736658  0.938513  1
  O  O27  1  0.385537  0.014654  0.190481  1
  O  O28  1  0.598753  0.030911  0.809995  1
  O  O29  1  0.901625  0.246034  0.084377  1
  O  O30  1  0.399537  0.561487  0.763342  1
  O  O31  1  0.809373  0.595919  0.033491  1
  O  O32  1  0.561645  0.764274  0.403981  1
  O  O33  1  0.740985  0.933478  0.097318  1
  O  O34  1  0.759015  0.402682  0.566522  1
  O  O35  1  0.966817  0.183878  0.393873  1
  O  O36  1  0.463093  0.902596  0.695658  1
  O  O37  1  0.938355  0.096019  0.735726  1
  O  O38  1  0.690627  0.466509  0.904081  1
  O  O39  1  0.901247  0.690005  0.469089  1
