# generated using pymatgen
data_Li2Fe(BO3)2
_symmetry_space_group_name_H-M   'P 1'
_cell_length_a   5.24010714
_cell_length_b   8.99771127
_cell_length_c   10.04928166
_cell_angle_alpha   90.00000000
_cell_angle_beta   92.94584857
_cell_angle_gamma   90.00000000
_symmetry_Int_Tables_number   1
_chemical_formula_structural   Li2Fe(BO3)2
_chemical_formula_sum   'Li8 Fe4 B8 O24'
_cell_volume   473.18717095
_cell_formula_units_Z   4
loop_
 _symmetry_equiv_pos_site_id
 _symmetry_equiv_pos_as_xyz
  1  'x, y, z'
loop_
 _atom_site_type_symbol
 _atom_site_label
 _atom_site_symmetry_multiplicity
 _atom_site_fract_x
 _atom_site_fract_y
 _atom_site_fract_z
 _atom_site_occupancy
  Li  Li0  1  0.179246  0.664823  0.630039  1
  Li  Li1  1  0.168798  0.990395  0.113249  1
  Li  Li2  1  0.320754  0.164823  0.869961  1
  Li  Li3  1  0.331202  0.490395  0.386751  1
  Li  Li4  1  0.668798  0.509605  0.613249  1
  Li  Li5  1  0.679246  0.835177  0.130039  1
  Li  Li6  1  0.831202  0.009605  0.886751  1
  Li  Li7  1  0.820754  0.335177  0.369961  1
  Fe  Fe8  1  0.149275  0.326632  0.127061  1
  Fe  Fe9  1  0.350725  0.826632  0.372939  1
  Fe  Fe10  1  0.649275  0.173368  0.627061  1
  Fe  Fe11  1  0.850725  0.673368  0.872939  1
  B  B12  1  0.169848  0.330759  0.619130  1
  B  B13  1  0.164460  0.661736  0.130505  1
  B  B14  1  0.330152  0.830759  0.880870  1
  B  B15  1  0.335540  0.161736  0.369495  1
  B  B16  1  0.664460  0.838264  0.630505  1
  B  B17  1  0.669848  0.169241  0.119130  1
  B  B18  1  0.835540  0.338264  0.869495  1
  B  B19  1  0.830152  0.669241  0.380870  1
  O  O20  1  0.069714  0.314992  0.934851  1
  O  O21  1  0.093128  0.672688  0.403513  1
  O  O22  1  0.195253  0.955623  0.905224  1
  O  O23  1  0.202768  0.288637  0.327111  1
  O  O24  1  0.209839  0.701840  0.835518  1
  O  O25  1  0.238090  0.024058  0.342416  1
  O  O26  1  0.290161  0.201840  0.664482  1
  O  O27  1  0.261910  0.524058  0.157584  1
  O  O28  1  0.297232  0.788637  0.172889  1
  O  O29  1  0.304747  0.455623  0.594776  1
  O  O30  1  0.430286  0.814992  0.565149  1
  O  O31  1  0.406872  0.172688  0.096488  1
  O  O32  1  0.593128  0.827312  0.903513  1
  O  O33  1  0.569714  0.185008  0.434851  1
  O  O34  1  0.695253  0.544377  0.405224  1
  O  O35  1  0.702768  0.211363  0.827111  1
  O  O36  1  0.738090  0.475942  0.842416  1
  O  O37  1  0.709839  0.798160  0.335518  1
  O  O38  1  0.761910  0.975942  0.657584  1
  O  O39  1  0.790161  0.298160  0.164482  1
  O  O40  1  0.797232  0.711363  0.672889  1
  O  O41  1  0.804747  0.044377  0.094776  1
  O  O42  1  0.906872  0.327312  0.596487  1
  O  O43  1  0.930286  0.685008  0.065149  1
