# generated using pymatgen
data_Co7O12
_symmetry_space_group_name_H-M   'P 1'
_cell_length_a   4.96435904
_cell_length_b   4.96435855
_cell_length_c   9.62267697
_cell_angle_alpha   83.82699937
_cell_angle_beta   96.17300260
_cell_angle_gamma   59.28315080
_symmetry_Int_Tables_number   1
_chemical_formula_structural   Co7O12
_chemical_formula_sum   'Co7 O12'
_cell_volume   199.00070994
_cell_formula_units_Z   1
loop_
 _symmetry_equiv_pos_site_id
 _symmetry_equiv_pos_as_xyz
  1  'x, y, z'
loop_
 _atom_site_type_symbol
 _atom_site_label
 _atom_site_symmetry_multiplicity
 _atom_site_fract_x
 _atom_site_fract_y
 _atom_site_fract_z
 _atom_site_occupancy
  Co  Co0  1  0.090125  0.090125  0.250000  1
  Co  Co1  1  0.994173  0.544684  0.977064  1
  Co  Co2  1  0.236426  0.236426  0.750000  1
  Co  Co3  1  0.544684  0.994173  0.522936  1
  Co  Co4  1  0.424068  0.424068  0.250000  1
  Co  Co5  1  0.559354  0.559354  0.750000  1
  Co  Co6  1  0.756277  0.756277  0.250000  1
  O  O7  1  0.944223  0.251313  0.866030  1
  O  O8  1  0.251313  0.944223  0.633970  1
  O  O9  1  0.180599  0.358457  0.365888  1
  O  O10  1  0.358457  0.180599  0.134112  1
  O  O11  1  0.284381  0.506948  0.853694  1
  O  O12  1  0.506948  0.284381  0.646306  1
  O  O13  1  0.463896  0.722852  0.351614  1
  O  O14  1  0.722852  0.463896  0.148386  1
  O  O15  1  0.589706  0.843731  0.859992  1
  O  O16  1  0.843731  0.589706  0.640008  1
  O  O17  1  0.783250  0.044120  0.360390  1
  O  O18  1  0.044120  0.783250  0.139610  1
