# generated using pymatgen
data_Li3Mn(FeO3)2
_symmetry_space_group_name_H-M   'P 1'
_cell_length_a   15.47352794
_cell_length_b   9.95272489
_cell_length_c   9.95272461
_cell_angle_alpha   17.52162065
_cell_angle_beta   16.75382805
_cell_angle_gamma   16.75383344
_symmetry_Int_Tables_number   1
_chemical_formula_structural   Li3Mn(FeO3)2
_chemical_formula_sum   'Li3 Mn1 Fe2 O6'
_cell_volume   114.26919754
_cell_formula_units_Z   1
loop_
 _symmetry_equiv_pos_site_id
 _symmetry_equiv_pos_as_xyz
  1  'x, y, z'
loop_
 _atom_site_type_symbol
 _atom_site_label
 _atom_site_symmetry_multiplicity
 _atom_site_fract_x
 _atom_site_fract_y
 _atom_site_fract_z
 _atom_site_occupancy
  Li  Li0  1  0.166667  0.500000  0.500000  1
  Li  Li1  1  0.508767  0.494774  0.494774  1
  Li  Li2  1  0.824566  0.505226  0.505226  1
  Mn  Mn3  1  0.666667  0.000000  0.000000  1
  Fe  Fe4  1  0.000462  0.001686  0.001686  1
  Fe  Fe5  1  0.332871  0.998314  0.998314  1
  O  O6  1  0.257057  0.251910  0.251910  1
  O  O7  1  0.584551  0.254604  0.254604  1
  O  O8  1  0.076277  0.748090  0.748090  1
  O  O9  1  0.921471  0.249928  0.249928  1
  O  O10  1  0.411862  0.750072  0.750072  1
  O  O11  1  0.748782  0.745396  0.745396  1
