# generated using pymatgen
data_Cr(PO3)5
_symmetry_space_group_name_H-M   'P 1'
_cell_length_a   5.09087598
_cell_length_b   13.70808065
_cell_length_c   8.94591307
_cell_angle_alpha   90.00000000
_cell_angle_beta   101.43439009
_cell_angle_gamma   90.00000000
_symmetry_Int_Tables_number   1
_chemical_formula_structural   Cr(PO3)5
_chemical_formula_sum   'Cr2 P10 O30'
_cell_volume   611.90983191
_cell_formula_units_Z   2
loop_
 _symmetry_equiv_pos_site_id
 _symmetry_equiv_pos_as_xyz
  1  'x, y, z'
loop_
 _atom_site_type_symbol
 _atom_site_label
 _atom_site_symmetry_multiplicity
 _atom_site_fract_x
 _atom_site_fract_y
 _atom_site_fract_z
 _atom_site_occupancy
  Cr  Cr0  1  0.500000  0.000000  0.500000  1
  Cr  Cr1  1  0.500000  0.500000  0.500000  1
  P  P2  1  0.345484  0.078466  0.811983  1
  P  P3  1  0.996540  0.858435  0.480247  1
  P  P4  1  0.003460  0.141565  0.519753  1
  P  P5  1  0.003460  0.358435  0.519753  1
  P  P6  1  0.545436  0.250000  0.999242  1
  P  P7  1  0.996540  0.641565  0.480247  1
  P  P8  1  0.345484  0.421534  0.811983  1
  P  P9  1  0.654517  0.578466  0.188017  1
  P  P10  1  0.654517  0.921534  0.188017  1
  P  P11  1  0.454564  0.750000  0.000758  1
  O  O12  1  0.702039  0.750000  0.930884  1
  O  O13  1  0.158929  0.073596  0.436750  1
  O  O14  1  0.132919  0.352608  0.696448  1
  O  O15  1  0.295020  0.876939  0.500143  1
  O  O16  1  0.132919  0.147392  0.696448  1
  O  O17  1  0.440116  0.660525  0.114651  1
  O  O18  1  0.958275  0.750000  0.537775  1
  O  O19  1  0.787157  0.974057  0.080098  1
  O  O20  1  0.212843  0.474057  0.919902  1
  O  O21  1  0.502803  0.518143  0.289126  1
  O  O22  1  0.704980  0.376939  0.499857  1
  O  O23  1  0.158929  0.426404  0.436750  1
  O  O24  1  0.497197  0.481857  0.710874  1
  O  O25  1  0.440116  0.839475  0.114651  1
  O  O26  1  0.867081  0.852608  0.303552  1
  O  O27  1  0.497197  0.018143  0.710874  1
  O  O28  1  0.867081  0.647392  0.303552  1
  O  O29  1  0.041725  0.250000  0.462225  1
  O  O30  1  0.218073  0.750000  0.868014  1
  O  O31  1  0.704980  0.123061  0.499857  1
  O  O32  1  0.841071  0.573596  0.563250  1
  O  O33  1  0.841071  0.926404  0.563250  1
  O  O34  1  0.295020  0.623061  0.500143  1
  O  O35  1  0.212843  0.025943  0.919902  1
  O  O36  1  0.297961  0.250000  0.069116  1
  O  O37  1  0.559884  0.160525  0.885349  1
  O  O38  1  0.502803  0.981857  0.289126  1
  O  O39  1  0.787157  0.525943  0.080098  1
  O  O40  1  0.559884  0.339475  0.885349  1
  O  O41  1  0.781927  0.250000  0.131986  1
