# generated using pymatgen
data_Li5TiV3O8
_symmetry_space_group_name_H-M   'P 1'
_cell_length_a   8.56956627
_cell_length_b   8.53999799
_cell_length_c   8.73075365
_cell_angle_alpha   89.99904193
_cell_angle_beta   89.99879911
_cell_angle_gamma   89.99794298
_symmetry_Int_Tables_number   1
_chemical_formula_structural   Li5TiV3O8
_chemical_formula_sum   'Li20 Ti4 V12 O32'
_cell_volume   638.95216203
_cell_formula_units_Z   4
loop_
 _symmetry_equiv_pos_site_id
 _symmetry_equiv_pos_as_xyz
  1  'x, y, z'
loop_
 _atom_site_type_symbol
 _atom_site_label
 _atom_site_symmetry_multiplicity
 _atom_site_fract_x
 _atom_site_fract_y
 _atom_site_fract_z
 _atom_site_occupancy
  Li  Li0  1  0.047962  0.950059  0.045060  1
  Li  Li1  1  0.872252  0.137058  0.112401  1
  Li  Li2  1  0.113124  0.122531  0.851090  1
  Li  Li3  1  0.363717  0.111947  0.634244  1
  Li  Li4  1  0.694674  0.194304  0.313854  1
  Li  Li5  1  0.305363  0.305687  0.813852  1
  Li  Li6  1  0.636327  0.387939  0.134139  1
  Li  Li7  1  0.886947  0.377467  0.351019  1
  Li  Li8  1  0.127782  0.362950  0.612444  1
  Li  Li9  1  0.952037  0.549982  0.545102  1
  Li  Li10  1  0.452231  0.450209  0.954898  1
  Li  Li11  1  0.627835  0.637105  0.887515  1
  Li  Li12  1  0.386771  0.622558  0.148679  1
  Li  Li13  1  0.136263  0.611796  0.365725  1
  Li  Li14  1  0.805245  0.694486  0.686171  1
  Li  Li15  1  0.194683  0.805559  0.186137  1
  Li  Li16  1  0.863712  0.888163  0.865773  1
  Li  Li17  1  0.613140  0.877481  0.648806  1
  Li  Li18  1  0.372118  0.862912  0.387461  1
  Li  Li19  1  0.547756  0.049792  0.454906  1
  Ti  Ti20  1  0.125388  0.120767  0.376631  1
  Ti  Ti21  1  0.874621  0.379242  0.876675  1
  Ti  Ti22  1  0.374546  0.620838  0.623385  1
  Ti  Ti23  1  0.625456  0.879166  0.123413  1
  V  V24  1  0.624213  0.121834  0.882846  1
  V  V25  1  0.369458  0.124158  0.131329  1
  V  V26  1  0.630571  0.375809  0.631349  1
  V  V27  1  0.375820  0.378146  0.382876  1
  V  V28  1  0.875659  0.621895  0.117129  1
  V  V29  1  0.130412  0.624071  0.868635  1
  V  V30  1  0.869536  0.875912  0.368642  1
  V  V31  1  0.124317  0.878098  0.617110  1
  V  V32  1  0.871168  0.126608  0.624847  1
  V  V33  1  0.128918  0.373415  0.124844  1
  V  V34  1  0.628740  0.626427  0.375131  1
  V  V35  1  0.371253  0.873548  0.875117  1
  O  O36  1  0.371966  0.110612  0.881706  1
  O  O37  1  0.623104  0.113211  0.128315  1
  O  O38  1  0.889715  0.127970  0.381353  1
  O  O39  1  0.116929  0.128761  0.610451  1
  O  O40  1  0.356611  0.124155  0.382668  1
  O  O41  1  0.633411  0.124464  0.637446  1
  O  O42  1  0.876024  0.136850  0.870183  1
  O  O43  1  0.119177  0.132054  0.144301  1
  O  O44  1  0.880870  0.367976  0.644305  1
  O  O45  1  0.124004  0.363152  0.370192  1
  O  O46  1  0.366628  0.375536  0.137448  1
  O  O47  1  0.643386  0.375836  0.882687  1
  O  O48  1  0.883108  0.371253  0.110442  1
  O  O49  1  0.110324  0.372017  0.881361  1
  O  O50  1  0.376930  0.386813  0.628341  1
  O  O51  1  0.628056  0.389362  0.381745  1
  O  O52  1  0.876779  0.613282  0.871683  1
  O  O53  1  0.127949  0.610537  0.118267  1
  O  O54  1  0.610284  0.627868  0.618617  1
  O  O55  1  0.383040  0.628785  0.389545  1
  O  O56  1  0.143350  0.624093  0.617283  1
  O  O57  1  0.866478  0.624499  0.362510  1
  O  O58  1  0.623857  0.636791  0.129763  1
  O  O59  1  0.380765  0.632131  0.855724  1
  O  O60  1  0.619204  0.867866  0.355694  1
  O  O61  1  0.376136  0.863216  0.629756  1
  O  O62  1  0.133535  0.875475  0.862492  1
  O  O63  1  0.856660  0.875910  0.117270  1
  O  O64  1  0.616954  0.871203  0.889530  1
  O  O65  1  0.389691  0.872116  0.118595  1
  O  O66  1  0.872056  0.889484  0.618237  1
  O  O67  1  0.123190  0.886726  0.371662  1
