# generated using pymatgen
data_SrLi4La15(CoO8)4
_symmetry_space_group_name_H-M   'P 1'
_cell_length_a   8.79953240
_cell_length_b   10.69213131
_cell_length_c   8.79953240
_cell_angle_alpha   72.31465977
_cell_angle_beta   94.34710260
_cell_angle_gamma   72.31465977
_symmetry_Int_Tables_number   1
_chemical_formula_structural   SrLi4La15(CoO8)4
_chemical_formula_sum   'Sr1 Li4 La15 Co4 O32'
_cell_volume   738.50750887
_cell_formula_units_Z   1
loop_
 _symmetry_equiv_pos_site_id
 _symmetry_equiv_pos_as_xyz
  1  'x, y, z'
loop_
 _atom_site_type_symbol
 _atom_site_label
 _atom_site_symmetry_multiplicity
 _atom_site_fract_x
 _atom_site_fract_y
 _atom_site_fract_z
 _atom_site_occupancy
  Sr  Sr0  1  0.389876  0.125000  0.110124  1
  Li  Li1  1  0.500622  0.500634  0.498762  1
  Li  Li2  1  0.500587  0.000159  0.496882  1
  Li  Li3  1  0.001238  0.749366  0.999378  1
  Li  Li4  1  0.003118  0.249841  0.999413  1
  La  La5  1  0.887451  0.873054  0.611888  1
  La  La6  1  0.611959  0.377894  0.886835  1
  La  La7  1  0.613165  0.872106  0.888041  1
  La  La8  1  0.888112  0.376946  0.612549  1
  La  La9  1  0.634250  0.250174  0.358909  1
  La  La10  1  0.139950  0.497518  0.863787  1
  La  La11  1  0.141091  0.999826  0.865750  1
  La  La12  1  0.636213  0.752482  0.360050  1
  La  La13  1  0.861479  0.499671  0.139075  1
  La  La14  1  0.358918  0.251292  0.635437  1
  La  La15  1  0.360925  0.750329  0.638521  1
  La  La16  1  0.864563  0.998708  0.141082  1
  La  La17  1  0.387605  0.625000  0.112395  1
  La  La18  1  0.112809  0.625000  0.387191  1
  La  La19  1  0.117165  0.125000  0.382835  1
  Co  Co20  1  0.750293  0.125000  0.749707  1
  Co  Co21  1  0.749803  0.625000  0.750197  1
  Co  Co22  1  0.249064  0.374638  0.250049  1
  Co  Co23  1  0.249951  0.875362  0.250936  1
  O  O24  1  0.871190  0.186733  0.870806  1
  O  O25  1  0.872055  0.686562  0.872105  1
  O  O26  1  0.872109  0.942635  0.870576  1
  O  O27  1  0.871177  0.440992  0.872518  1
  O  O28  1  0.929699  0.625000  0.570301  1
  O  O29  1  0.911330  0.125000  0.588670  1
  O  O30  1  0.595045  0.125000  0.904955  1
  O  O31  1  0.571482  0.625000  0.928518  1
  O  O32  1  0.629424  0.307365  0.627891  1
  O  O33  1  0.629194  0.063267  0.628810  1
  O  O34  1  0.627895  0.563438  0.627945  1
  O  O35  1  0.627482  0.809008  0.628823  1
  O  O36  1  0.320390  0.498723  0.681962  1
  O  O37  1  0.818038  0.751277  0.179610  1
  O  O38  1  0.316130  0.001379  0.681003  1
  O  O39  1  0.818997  0.248621  0.183870  1
  O  O40  1  0.180664  0.749578  0.820086  1
  O  O41  1  0.688954  0.996037  0.325606  1
  O  O42  1  0.174394  0.253963  0.811046  1
  O  O43  1  0.679914  0.500422  0.319336  1
  O  O44  1  0.371155  0.436740  0.372617  1
  O  O45  1  0.371391  0.691260  0.372548  1
  O  O46  1  0.369389  0.935876  0.376198  1
  O  O47  1  0.369073  0.191490  0.376268  1
  O  O48  1  0.429829  0.379524  0.069656  1
  O  O49  1  0.430344  0.870476  0.070171  1
  O  O50  1  0.071785  0.875865  0.431101  1
  O  O51  1  0.068899  0.374135  0.428215  1
  O  O52  1  0.123802  0.314124  0.130611  1
  O  O53  1  0.127452  0.558740  0.128609  1
  O  O54  1  0.127383  0.813260  0.128845  1
  O  O55  1  0.123732  0.058510  0.130927  1
