# generated using pymatgen
data_Li2Fe(SiO3)2
_symmetry_space_group_name_H-M   'P 1'
_cell_length_a   5.21075920
_cell_length_b   10.33477833
_cell_length_c   5.21093299
_cell_angle_alpha   104.22342762
_cell_angle_beta   88.43181538
_cell_angle_gamma   75.81555868
_symmetry_Int_Tables_number   1
_chemical_formula_structural   Li2Fe(SiO3)2
_chemical_formula_sum   'Li4 Fe2 Si4 O12'
_cell_volume   262.57618687
_cell_formula_units_Z   2
loop_
 _symmetry_equiv_pos_site_id
 _symmetry_equiv_pos_as_xyz
  1  'x, y, z'
loop_
 _atom_site_type_symbol
 _atom_site_label
 _atom_site_symmetry_multiplicity
 _atom_site_fract_x
 _atom_site_fract_y
 _atom_site_fract_z
 _atom_site_occupancy
  Li  Li0  1  0.529129  0.828446  0.912526  1
  Li  Li1  1  0.107580  0.670574  0.833408  1
  Li  Li2  1  0.837730  0.328439  0.104141  1
  Li  Li3  1  0.916728  0.170673  0.525424  1
  Fe  Fe4  1  0.728276  0.499243  0.724219  1
  Fe  Fe5  1  0.978719  0.999731  0.974506  1
  Si  Si6  1  0.163070  0.835051  0.403346  1
  Si  Si7  1  0.748493  0.664020  0.317773  1
  Si  Si8  1  0.322040  0.334831  0.746928  1
  Si  Si9  1  0.407651  0.164109  0.161314  1
  O  O10  1  0.049525  0.990964  0.588926  1
  O  O11  1  0.183545  0.828614  0.087048  1
  O  O12  1  0.974342  0.736203  0.477632  1
  O  O13  1  0.460811  0.763112  0.491271  1
  O  O14  1  0.762493  0.670506  0.008041  1
  O  O15  1  0.791449  0.508291  0.347863  1
  O  O16  1  0.351878  0.490426  0.787792  1
  O  O17  1  0.012342  0.328271  0.760036  1
  O  O18  1  0.496032  0.234773  0.459992  1
  O  O19  1  0.481295  0.264208  0.974917  1
  O  O20  1  0.091309  0.170655  0.181269  1
  O  O21  1  0.593007  0.008476  0.045945  1
