# generated using pymatgen
data_Li5CrS4
_symmetry_space_group_name_H-M   'P 1'
_cell_length_a   3.73584783
_cell_length_b   7.61171646
_cell_length_c   6.77141389
_cell_angle_alpha   63.40820670
_cell_angle_beta   90.00000000
_cell_angle_gamma   75.79445881
_symmetry_Int_Tables_number   1
_chemical_formula_structural   Li5CrS4
_chemical_formula_sum   'Li5 Cr1 S4'
_cell_volume   165.57404582
_cell_formula_units_Z   1
loop_
 _symmetry_equiv_pos_site_id
 _symmetry_equiv_pos_as_xyz
  1  'x, y, z'
loop_
 _atom_site_type_symbol
 _atom_site_label
 _atom_site_symmetry_multiplicity
 _atom_site_fract_x
 _atom_site_fract_y
 _atom_site_fract_z
 _atom_site_occupancy
  Li  Li0  1  0.177504  0.644992  0.962503  1
  Li  Li1  1  0.178057  0.643887  0.392624  1
  Li  Li2  1  0.821943  0.356113  0.607376  1
  Li  Li3  1  0.822496  0.355008  0.037497  1
  Li  Li4  1  0.500000  0.000000  0.500000  1
  Cr  Cr5  1  0.500000  0.000000  0.000000  1
  S  S6  1  0.000409  0.999182  0.243217  1
  S  S7  1  0.697996  0.604007  0.197626  1
  S  S8  1  0.302004  0.395993  0.802374  1
  S  S9  1  0.999591  0.000818  0.756783  1
