# generated using pymatgen
data_Li6Mn2C4SO16
_symmetry_space_group_name_H-M   'P 1'
_cell_length_a   9.52052203
_cell_length_b   9.52052203
_cell_length_c   9.52052243
_cell_angle_alpha   60.00000128
_cell_angle_beta   89.99999462
_cell_angle_gamma   119.99999366
_symmetry_Int_Tables_number   1
_chemical_formula_structural   Li6Mn2C4SO16
_chemical_formula_sum   'Li12 Mn4 C8 S2 O32'
_cell_volume   610.19316263
_cell_formula_units_Z   2
loop_
 _symmetry_equiv_pos_site_id
 _symmetry_equiv_pos_as_xyz
  1  'x, y, z'
loop_
 _atom_site_type_symbol
 _atom_site_label
 _atom_site_symmetry_multiplicity
 _atom_site_fract_x
 _atom_site_fract_y
 _atom_site_fract_z
 _atom_site_occupancy
  Li  Li0  1  0.091811  0.750000  0.091811  1
  Li  Li1  1  0.341811  0.250000  0.341811  1
  Li  Li2  1  0.091811  0.183622  0.658189  1
  Li  Li3  1  0.658189  0.316378  0.091811  1
  Li  Li4  1  0.908189  0.250000  0.341811  1
  Li  Li5  1  0.341811  0.250000  0.908189  1
  Li  Li6  1  0.091811  0.750000  0.658189  1
  Li  Li7  1  0.658189  0.750000  0.091811  1
  Li  Li8  1  0.341811  0.683622  0.908189  1
  Li  Li9  1  0.908189  0.250000  0.908189  1
  Li  Li10  1  0.908189  0.816378  0.341811  1
  Li  Li11  1  0.658189  0.750000  0.658189  1
  Mn  Mn12  1  0.500000  0.000000  0.000000  1
  Mn  Mn13  1  0.500000  0.000000  0.500000  1
  Mn  Mn14  1  0.000000  0.500000  0.500000  1
  Mn  Mn15  1  0.500000  0.500000  0.500000  1
  C  C16  1  0.321082  0.047388  0.726306  1
  C  C17  1  0.273694  0.547388  0.273694  1
  C  C18  1  0.273694  0.547388  0.678918  1
  C  C19  1  0.726306  0.047388  0.726306  1
  C  C20  1  0.273694  0.952612  0.273694  1
  C  C21  1  0.726306  0.452612  0.321082  1
  C  C22  1  0.726306  0.452612  0.726306  1
  C  C23  1  0.678918  0.952612  0.273694  1
  S  S24  1  0.125000  0.250000  0.125000  1
  S  S25  1  0.875000  0.750000  0.875000  1
  O  O26  1  0.060827  0.121655  0.060827  1
  O  O27  1  0.060827  0.121655  0.317518  1
  O  O28  1  0.060827  0.378345  0.060827  1
  O  O29  1  0.317518  0.378345  0.060827  1
  O  O30  1  0.406913  0.085944  0.280197  1
  O  O31  1  0.679031  0.085944  0.133860  1
  O  O32  1  0.133860  0.540773  0.280197  1
  O  O33  1  0.320969  0.040773  0.593087  1
  O  O34  1  0.280197  0.414056  0.406913  1
  O  O35  1  0.133860  0.414056  0.679031  1
  O  O36  1  0.406913  0.687109  0.133860  1
  O  O37  1  0.320969  0.187109  0.719803  1
  O  O38  1  0.719803  0.312891  0.320969  1
  O  O39  1  0.133860  0.812891  0.406913  1
  O  O40  1  0.593087  0.459227  0.320969  1
  O  O41  1  0.280197  0.959227  0.133860  1
  O  O42  1  0.406913  0.540773  0.679031  1
  O  O43  1  0.719803  0.040773  0.866140  1
  O  O44  1  0.866140  0.187109  0.593087  1
  O  O45  1  0.280197  0.687109  0.679031  1
  O  O46  1  0.679031  0.812891  0.280197  1
  O  O47  1  0.593087  0.312891  0.866140  1
  O  O48  1  0.866140  0.585944  0.320969  1
  O  O49  1  0.719803  0.585944  0.593087  1
  O  O50  1  0.866140  0.459227  0.719803  1
  O  O51  1  0.679031  0.959227  0.406913  1
  O  O52  1  0.320969  0.914056  0.866140  1
  O  O53  1  0.593087  0.914056  0.719803  1
  O  O54  1  0.682482  0.621655  0.939173  1
  O  O55  1  0.939173  0.621655  0.939173  1
  O  O56  1  0.939173  0.878345  0.682482  1
  O  O57  1  0.939173  0.878345  0.939173  1
