# generated using pymatgen
data_MnFe(PO4)2
_symmetry_space_group_name_H-M   'P 1'
_cell_length_a   9.89358950
_cell_length_b   6.00458539
_cell_length_c   4.91802475
_cell_angle_alpha   89.99996394
_cell_angle_beta   89.99978823
_cell_angle_gamma   89.99997335
_symmetry_Int_Tables_number   1
_chemical_formula_structural   MnFe(PO4)2
_chemical_formula_sum   'Mn2 Fe2 P4 O16'
_cell_volume   292.16461911
_cell_formula_units_Z   2
loop_
 _symmetry_equiv_pos_site_id
 _symmetry_equiv_pos_as_xyz
  1  'x, y, z'
loop_
 _atom_site_type_symbol
 _atom_site_label
 _atom_site_symmetry_multiplicity
 _atom_site_fract_x
 _atom_site_fract_y
 _atom_site_fract_z
 _atom_site_occupancy
  Mn  Mn0  1  0.215080  0.749999  0.435401  1
  Mn  Mn1  1  0.284922  0.250014  0.935382  1
  Fe  Fe2  1  0.726443  0.749999  0.031094  1
  Fe  Fe3  1  0.773560  0.250000  0.531113  1
  P  P4  1  0.100821  0.249996  0.421289  1
  P  P5  1  0.399178  0.750001  0.921293  1
  P  P6  1  0.597382  0.250000  0.080789  1
  P  P7  1  0.902618  0.750000  0.580803  1
  O  O8  1  0.053509  0.749999  0.652086  1
  O  O9  1  0.120636  0.250000  0.731749  1
  O  O10  1  0.172384  0.049760  0.279185  1
  O  O11  1  0.172384  0.450239  0.279186  1
  O  O12  1  0.327617  0.549763  0.779187  1
  O  O13  1  0.327616  0.950235  0.779184  1
  O  O14  1  0.379366  0.750000  0.231750  1
  O  O15  1  0.446489  0.250000  0.152088  1
  O  O16  1  0.551301  0.749999  0.862402  1
  O  O17  1  0.618700  0.250000  0.773865  1
  O  O18  1  0.671988  0.050207  0.226282  1
  O  O19  1  0.671987  0.449792  0.226280  1
  O  O20  1  0.828013  0.550209  0.726287  1
  O  O21  1  0.828013  0.949789  0.726288  1
  O  O22  1  0.881292  0.750000  0.273862  1
  O  O23  1  0.948701  0.250001  0.362407  1
