# generated using pymatgen
data_Li8MnNi7O16
_symmetry_space_group_name_H-M   'P 1'
_cell_length_a   6.61461822
_cell_length_b   6.51854423
_cell_length_c   7.60713083
_cell_angle_alpha   75.44522959
_cell_angle_beta   115.40909651
_cell_angle_gamma   107.43012697
_symmetry_Int_Tables_number   1
_chemical_formula_structural   Li8MnNi7O16
_chemical_formula_sum   'Li8 Mn1 Ni7 O16'
_cell_volume   279.78589682
_cell_formula_units_Z   1
loop_
 _symmetry_equiv_pos_site_id
 _symmetry_equiv_pos_as_xyz
  1  'x, y, z'
loop_
 _atom_site_type_symbol
 _atom_site_label
 _atom_site_symmetry_multiplicity
 _atom_site_fract_x
 _atom_site_fract_y
 _atom_site_fract_z
 _atom_site_occupancy
  Li  Li0  1  0.003161  0.995357  0.997742  1
  Li  Li1  1  0.624358  0.619414  0.875346  1
  Li  Li2  1  0.247446  0.249886  0.753604  1
  Li  Li3  1  0.877621  0.875135  0.621397  1
  Li  Li4  1  0.500668  0.505637  0.499654  1
  Li  Li5  1  0.121815  0.129605  0.377226  1
  Li  Li6  1  0.755178  0.757072  0.250083  1
  Li  Li7  1  0.369742  0.367908  0.124843  1
  Mn  Mn8  1  0.562442  0.062440  0.687431  1
  Ni  Ni9  1  0.310934  0.813244  0.937783  1
  Ni  Ni10  1  0.814062  0.311727  0.437232  1
  Ni  Ni11  1  0.183824  0.684070  0.561173  1
  Ni  Ni12  1  0.941201  0.440905  0.813812  1
  Ni  Ni13  1  0.437590  0.938640  0.313106  1
  Ni  Ni14  1  0.062493  0.562396  0.187540  1
  Ni  Ni15  1  0.687430  0.186373  0.061968  1
  O  O16  1  0.651592  0.926824  0.960527  1
  O  O17  1  0.271834  0.542482  0.823062  1
  O  O18  1  0.239971  0.968177  0.653434  1
  O  O19  1  0.975636  0.701001  0.920514  1
  O  O20  1  0.597064  0.320726  0.789032  1
  O  O21  1  0.527937  0.804328  0.585989  1
  O  O22  1  0.149350  0.424012  0.454455  1
  O  O23  1  0.091203  0.812372  0.291155  1
  O  O24  1  0.885034  0.156890  0.721584  1
  O  O25  1  0.853191  0.582543  0.551967  1
  O  O26  1  0.473385  0.198159  0.414480  1
  O  O27  1  0.380976  0.664268  0.222320  1
  O  O28  1  0.033785  0.312667  0.083850  1
  O  O29  1  0.773706  0.040825  0.323223  1
  O  O30  1  0.744090  0.460749  0.152691  1
  O  O31  1  0.351277  0.084171  0.051778  1
