# generated using pymatgen
data_LiVCrO4
_symmetry_space_group_name_H-M   'P 1'
_cell_length_a   5.26708844
_cell_length_b   5.91647612
_cell_length_c   7.87671565
_cell_angle_alpha   80.04629399
_cell_angle_beta   69.47785196
_cell_angle_gamma   88.22225083
_symmetry_Int_Tables_number   1
_chemical_formula_structural   LiVCrO4
_chemical_formula_sum   'Li3 V3 Cr3 O12'
_cell_volume   226.30470462
_cell_formula_units_Z   3
loop_
 _symmetry_equiv_pos_site_id
 _symmetry_equiv_pos_as_xyz
  1  'x, y, z'
loop_
 _atom_site_type_symbol
 _atom_site_label
 _atom_site_symmetry_multiplicity
 _atom_site_fract_x
 _atom_site_fract_y
 _atom_site_fract_z
 _atom_site_occupancy
  Li  Li0  1  0.000892  0.997040  0.998333  1
  Li  Li1  1  0.997019  0.662862  0.332430  1
  Li  Li2  1  0.998273  0.339952  0.670832  1
  V  V3  1  0.473733  0.257936  0.008935  1
  V  V4  1  0.469575  0.919575  0.338743  1
  V  V5  1  0.531582  0.076552  0.659749  1
  Cr  Cr6  1  0.520663  0.752863  0.994090  1
  Cr  Cr7  1  0.523250  0.416768  0.328005  1
  Cr  Cr8  1  0.481420  0.581509  0.672423  1
  O  O9  1  0.277006  0.958962  0.161783  1
  O  O10  1  0.300235  0.467216  0.157104  1
  O  O11  1  0.282035  0.627501  0.487355  1
  O  O12  1  0.305885  0.133766  0.492331  1
  O  O13  1  0.304806  0.814228  0.830872  1
  O  O14  1  0.285845  0.278452  0.820750  1
  O  O15  1  0.715917  0.719157  0.183664  1
  O  O16  1  0.697768  0.184246  0.165946  1
  O  O17  1  0.699744  0.867285  0.507712  1
  O  O18  1  0.719740  0.373007  0.508571  1
  O  O19  1  0.697920  0.518853  0.837833  1
  O  O20  1  0.716688  0.052271  0.842535  1
