# generated using pymatgen
data_Li2Ti3NbO8
_symmetry_space_group_name_H-M   'P 1'
_cell_length_a   5.96817017
_cell_length_b   5.96926057
_cell_length_c   9.84661252
_cell_angle_alpha   89.97695111
_cell_angle_beta   90.01152567
_cell_angle_gamma   120.00604451
_symmetry_Int_Tables_number   1
_chemical_formula_structural   Li2Ti3NbO8
_chemical_formula_sum   'Li4 Ti6 Nb2 O16'
_cell_volume   303.77548579
_cell_formula_units_Z   2
loop_
 _symmetry_equiv_pos_site_id
 _symmetry_equiv_pos_as_xyz
  1  'x, y, z'
loop_
 _atom_site_type_symbol
 _atom_site_label
 _atom_site_symmetry_multiplicity
 _atom_site_fract_x
 _atom_site_fract_y
 _atom_site_fract_z
 _atom_site_occupancy
  Li  Li0  1  0.333332  0.666659  0.898305  1
  Li  Li1  1  0.999979  0.999932  0.993797  1
  Li  Li2  1  0.000021  0.999954  0.493797  1
  Li  Li3  1  0.666668  0.333327  0.398305  1
  Ti  Ti4  1  0.659917  0.829954  0.215706  1
  Ti  Ti5  1  0.340083  0.170039  0.715706  1
  Ti  Ti6  1  0.830032  0.169990  0.715720  1
  Ti  Ti7  1  0.169908  0.830006  0.215723  1
  Ti  Ti8  1  0.169968  0.339957  0.215720  1
  Ti  Ti9  1  0.830092  0.660098  0.715723  1
  Nb  Nb10  1  0.333285  0.666649  0.488567  1
  Nb  Nb11  1  0.666715  0.333364  0.988567  1
  O  O12  1  0.163373  0.836724  0.598727  1
  O  O13  1  0.035752  0.517920  0.338356  1
  O  O14  1  0.333176  0.666620  0.103753  1
  O  O15  1  0.000152  0.000164  0.310695  1
  O  O16  1  0.999848  0.000012  0.810695  1
  O  O17  1  0.163313  0.326562  0.598685  1
  O  O18  1  0.482193  0.964163  0.338536  1
  O  O19  1  0.482210  0.518098  0.338506  1
  O  O20  1  0.326501  0.163270  0.098842  1
  O  O21  1  0.673499  0.836769  0.598843  1
  O  O22  1  0.517807  0.481970  0.838536  1
  O  O23  1  0.517790  0.035888  0.838506  1
  O  O24  1  0.666824  0.333444  0.603753  1
  O  O25  1  0.836627  0.673350  0.098727  1
  O  O26  1  0.964248  0.482167  0.838357  1
  O  O27  1  0.836687  0.163248  0.098685  1
