# generated using pymatgen
data_Li2Ti3MnO8
_symmetry_space_group_name_H-M   'P 1'
_cell_length_a   5.97764929
_cell_length_b   5.97766528
_cell_length_c   9.92521527
_cell_angle_alpha   90.00000594
_cell_angle_beta   89.99999682
_cell_angle_gamma   120.00008705
_symmetry_Int_Tables_number   1
_chemical_formula_structural   Li2Ti3MnO8
_chemical_formula_sum   'Li4 Ti6 Mn2 O16'
_cell_volume   307.13705093
_cell_formula_units_Z   2
loop_
 _symmetry_equiv_pos_site_id
 _symmetry_equiv_pos_as_xyz
  1  'x, y, z'
loop_
 _atom_site_type_symbol
 _atom_site_label
 _atom_site_symmetry_multiplicity
 _atom_site_fract_x
 _atom_site_fract_y
 _atom_site_fract_z
 _atom_site_occupancy
  Li  Li0  1  0.333330  0.666679  0.888262  1
  Li  Li1  1  -0.000000  0.000005  0.999060  1
  Li  Li2  1  0.000000  0.000005  0.499060  1
  Li  Li3  1  0.666670  0.333350  0.388262  1
  Ti  Ti4  1  0.168513  0.831484  0.215695  1
  Ti  Ti5  1  0.168513  0.337029  0.215676  1
  Ti  Ti6  1  0.662967  0.831485  0.215682  1
  Ti  Ti7  1  0.337033  0.168518  0.715682  1
  Ti  Ti8  1  0.831487  0.662971  0.715695  1
  Ti  Ti9  1  0.831487  0.168517  0.715676  1
  Mn  Mn10  1  0.333349  0.666692  0.496546  1
  Mn  Mn11  1  0.666651  0.333341  0.996546  1
  O  O12  1  0.154821  0.845200  0.608770  1
  O  O13  1  0.033158  0.516591  0.325002  1
  O  O14  1  0.333330  0.666678  0.105853  1
  O  O15  1  0.999996  0.000005  0.315841  1
  O  O16  1  0.000004  0.000009  0.815841  1
  O  O17  1  0.154811  0.309642  0.608768  1
  O  O18  1  0.483426  0.966867  0.324997  1
  O  O19  1  0.483426  0.516597  0.324997  1
  O  O20  1  0.309631  0.154831  0.108772  1
  O  O21  1  0.690369  0.845201  0.608772  1
  O  O22  1  0.516574  0.483441  0.824997  1
  O  O23  1  0.516573  0.033170  0.824997  1
  O  O24  1  0.666670  0.333348  0.605853  1
  O  O25  1  0.845179  0.690379  0.108770  1
  O  O26  1  0.966842  0.483434  0.825002  1
  O  O27  1  0.845189  0.154831  0.108768  1
