# generated using pymatgen
data_Li4Fe3(BO3)4
_symmetry_space_group_name_H-M   'P 1'
_cell_length_a   5.25241219
_cell_length_b   8.94871565
_cell_length_c   9.95071348
_cell_angle_alpha   90.00000000
_cell_angle_beta   92.42734227
_cell_angle_gamma   90.00000000
_symmetry_Int_Tables_number   1
_chemical_formula_structural   Li4Fe3(BO3)4
_chemical_formula_sum   'Li8 Fe6 B8 O24'
_cell_volume   467.28719140
_cell_formula_units_Z   2
loop_
 _symmetry_equiv_pos_site_id
 _symmetry_equiv_pos_as_xyz
  1  'x, y, z'
loop_
 _atom_site_type_symbol
 _atom_site_label
 _atom_site_symmetry_multiplicity
 _atom_site_fract_x
 _atom_site_fract_y
 _atom_site_fract_z
 _atom_site_occupancy
  Li  Li0  1  0.160709  0.987080  0.680555  1
  Li  Li1  1  0.163874  0.663328  0.617998  1
  Li  Li2  1  0.184387  0.986675  0.078386  1
  Li  Li3  1  0.300677  0.485787  0.389228  1
  Li  Li4  1  0.660709  0.512920  0.180555  1
  Li  Li5  1  0.684387  0.513325  0.578386  1
  Li  Li6  1  0.663874  0.836672  0.117998  1
  Li  Li7  1  0.800677  0.014213  0.889228  1
  Fe  Fe8  1  0.155087  0.320282  0.129943  1
  Fe  Fe9  1  0.359755  0.449107  0.830499  1
  Fe  Fe10  1  0.356556  0.811803  0.376454  1
  Fe  Fe11  1  0.655087  0.179718  0.629943  1
  Fe  Fe12  1  0.856556  0.688197  0.876454  1
  Fe  Fe13  1  0.859755  0.050893  0.330499  1
  B  B14  1  0.165636  0.322697  0.614747  1
  B  B15  1  0.160430  0.660698  0.133096  1
  B  B16  1  0.319923  0.808790  0.880682  1
  B  B17  1  0.350999  0.159018  0.372974  1
  B  B18  1  0.660430  0.839302  0.633096  1
  B  B19  1  0.665636  0.177303  0.114747  1
  B  B20  1  0.850999  0.340982  0.872974  1
  B  B21  1  0.819923  0.691210  0.380682  1
  O  O22  1  0.100964  0.333891  0.925559  1
  O  O23  1  0.077207  0.668387  0.408407  1
  O  O24  1  0.137528  0.917695  0.885959  1
  O  O25  1  0.228198  0.665060  0.845357  1
  O  O26  1  0.215714  0.283038  0.329865  1
  O  O27  1  0.233630  0.019699  0.359913  1
  O  O28  1  0.282056  0.185115  0.634353  1
  O  O29  1  0.294049  0.788822  0.172041  1
  O  O30  1  0.318807  0.451994  0.618181  1
  O  O31  1  0.284383  0.522603  0.148017  1
  O  O32  1  0.409856  0.830707  0.581875  1
  O  O33  1  0.405589  0.163209  0.102268  1
  O  O34  1  0.577207  0.831613  0.908407  1
  O  O35  1  0.600964  0.166109  0.425559  1
  O  O36  1  0.715714  0.216962  0.829865  1
  O  O37  1  0.637528  0.582305  0.385959  1
  O  O38  1  0.733630  0.480301  0.859913  1
  O  O39  1  0.728198  0.834940  0.345357  1
  O  O40  1  0.794049  0.711178  0.672041  1
  O  O41  1  0.782056  0.314885  0.134353  1
  O  O42  1  0.784383  0.977397  0.648017  1
  O  O43  1  0.818807  0.048006  0.118181  1
  O  O44  1  0.905589  0.336791  0.602268  1
  O  O45  1  0.909856  0.669293  0.081875  1
