# generated using pymatgen
data_Mn3Cu3(TeO8)2
_symmetry_space_group_name_H-M   'P 1'
_cell_length_a   5.95065928
_cell_length_b   5.84877951
_cell_length_c   9.22228280
_cell_angle_alpha   89.97198333
_cell_angle_beta   87.60409753
_cell_angle_gamma   119.43384249
_symmetry_Int_Tables_number   1
_chemical_formula_structural   Mn3Cu3(TeO8)2
_chemical_formula_sum   'Mn3 Cu3 Te2 O16'
_cell_volume   279.21719723
_cell_formula_units_Z   1
loop_
 _symmetry_equiv_pos_site_id
 _symmetry_equiv_pos_as_xyz
  1  'x, y, z'
loop_
 _atom_site_type_symbol
 _atom_site_label
 _atom_site_symmetry_multiplicity
 _atom_site_fract_x
 _atom_site_fract_y
 _atom_site_fract_z
 _atom_site_occupancy
  Mn  Mn0  1  0.662982  0.831480  0.212774  1
  Mn  Mn1  1  0.827962  0.662899  0.709565  1
  Mn  Mn2  1  0.827922  0.165022  0.709551  1
  Cu  Cu3  1  0.164714  0.829776  0.209014  1
  Cu  Cu4  1  0.164266  0.334589  0.208947  1
  Cu  Cu5  1  0.335634  0.167835  0.711436  1
  Te  Te6  1  0.333185  0.666948  0.485207  1
  Te  Te7  1  0.656676  0.328269  0.990394  1
  O  O8  1  0.166252  0.830019  0.595986  1
  O  O9  1  0.046898  0.524158  0.348259  1
  O  O10  1  0.344141  0.673184  0.116223  1
  O  O11  1  0.991859  0.994620  0.299177  1
  O  O12  1  0.983968  0.992159  0.803417  1
  O  O13  1  0.166192  0.336493  0.595768  1
  O  O14  1  0.509671  0.972605  0.349924  1
  O  O15  1  0.508472  0.536371  0.349732  1
  O  O16  1  0.323727  0.161246  0.092582  1
  O  O17  1  0.655846  0.827908  0.603731  1
  O  O18  1  0.530501  0.492376  0.845225  1
  O  O19  1  0.530502  0.037967  0.845153  1
  O  O20  1  0.680036  0.339918  0.609692  1
  O  O21  1  0.815521  0.652369  0.094064  1
  O  O22  1  0.956657  0.478393  0.835596  1
  O  O23  1  0.816415  0.163593  0.094302  1
