# generated using pymatgen
data_Mn5Fe(PO4)6
_symmetry_space_group_name_H-M   'P 1'
_cell_length_a   8.60992984
_cell_length_b   8.57458890
_cell_length_c   8.57458951
_cell_angle_alpha   59.99999644
_cell_angle_beta   60.13568961
_cell_angle_gamma   60.13569176
_symmetry_Int_Tables_number   1
_chemical_formula_structural   Mn5Fe(PO4)6
_chemical_formula_sum   'Mn5 Fe1 P6 O24'
_cell_volume   448.53768070
_cell_formula_units_Z   1
loop_
 _symmetry_equiv_pos_site_id
 _symmetry_equiv_pos_as_xyz
  1  'x, y, z'
loop_
 _atom_site_type_symbol
 _atom_site_label
 _atom_site_symmetry_multiplicity
 _atom_site_fract_x
 _atom_site_fract_y
 _atom_site_fract_z
 _atom_site_occupancy
  Mn  Mn0  1  0.996856  0.001048  0.001048  1
  Mn  Mn1  1  0.069802  0.643399  0.643399  1
  Mn  Mn2  1  0.501255  0.499581  0.499581  1
  Mn  Mn3  1  0.431430  0.856190  0.856190  1
  Mn  Mn4  1  0.931656  0.356114  0.356114  1
  Fe  Fe5  1  0.566432  0.144523  0.144523  1
  P  P6  1  0.247822  0.250545  0.542953  1
  P  P7  1  0.247822  0.958681  0.250545  1
  P  P8  1  0.247822  0.542953  0.958681  1
  P  P9  1  0.752990  0.460755  0.037324  1
  P  P10  1  0.752990  0.037324  0.748931  1
  P  P11  1  0.752990  0.748931  0.460755  1
  O  O12  1  0.065261  0.119661  0.301922  1
  O  O13  1  0.065261  0.513156  0.119661  1
  O  O14  1  0.065261  0.301922  0.513156  1
  O  O15  1  0.235439  0.085153  0.738971  1
  O  O16  1  0.430307  0.198123  0.383823  1
  O  O17  1  0.257834  0.420451  0.559492  1
  O  O18  1  0.235439  0.940438  0.085153  1
  O  O19  1  0.257834  0.762223  0.420451  1
  O  O20  1  0.568797  0.620575  0.009542  1
  O  O21  1  0.257834  0.559492  0.762223  1
  O  O22  1  0.767746  0.265670  0.054276  1
  O  O23  1  0.568797  0.009542  0.801086  1
  O  O24  1  0.430307  0.987746  0.198123  1
  O  O25  1  0.235439  0.738971  0.940438  1
  O  O26  1  0.739264  0.446431  0.233062  1
  O  O27  1  0.430307  0.383823  0.987746  1
  O  O28  1  0.739264  0.233062  0.581243  1
  O  O29  1  0.767746  0.054276  0.912308  1
  O  O30  1  0.739264  0.581243  0.446431  1
  O  O31  1  0.568797  0.801086  0.620575  1
  O  O32  1  0.767746  0.912308  0.265670  1
  O  O33  1  0.935397  0.693936  0.496072  1
  O  O34  1  0.935397  0.496072  0.874594  1
  O  O35  1  0.935397  0.874594  0.693936  1
