# generated using pymatgen
data_LiCoH8(CO5)2
_symmetry_space_group_name_H-M   'P 1'
_cell_length_a   5.39143223
_cell_length_b   5.39143204
_cell_length_c   15.28126688
_cell_angle_alpha   81.55459285
_cell_angle_beta   98.44540721
_cell_angle_gamma   102.26704357
_symmetry_Int_Tables_number   1
_chemical_formula_structural   LiCoH8(CO5)2
_chemical_formula_sum   'Li2 Co2 H16 C4 O20'
_cell_volume   426.25543171
_cell_formula_units_Z   2
loop_
 _symmetry_equiv_pos_site_id
 _symmetry_equiv_pos_as_xyz
  1  'x, y, z'
loop_
 _atom_site_type_symbol
 _atom_site_label
 _atom_site_symmetry_multiplicity
 _atom_site_fract_x
 _atom_site_fract_y
 _atom_site_fract_z
 _atom_site_occupancy
  Li  Li0  1  0.429439  0.263675  0.464835  1
  Li  Li1  1  0.736325  0.570561  0.964835  1
  Co  Co2  1  0.062380  0.060850  0.249915  1
  Co  Co3  1  0.939150  0.937620  0.749915  1
  H  H4  1  0.227834  0.855322  0.944115  1
  H  H5  1  0.135583  0.830318  0.541367  1
  H  H6  1  0.230749  0.472738  0.891235  1
  H  H7  1  0.144678  0.772166  0.444115  1
  H  H8  1  0.271143  0.381481  0.615799  1
  H  H9  1  0.169682  0.864417  0.041367  1
  H  H10  1  0.382515  0.273015  0.875650  1
  H  H11  1  0.449554  0.187117  0.626737  1
  H  H12  1  0.527262  0.769251  0.391235  1
  H  H13  1  0.618519  0.728857  0.115799  1
  H  H14  1  0.820427  0.104278  0.957886  1
  H  H15  1  0.726985  0.617485  0.375650  1
  H  H16  1  0.857829  0.225902  0.554142  1
  H  H17  1  0.812883  0.550446  0.126737  1
  H  H18  1  0.895722  0.179573  0.457886  1
  H  H19  1  0.774098  0.142171  0.054142  1
  C  C20  1  0.046157  0.484411  0.288979  1
  C  C21  1  0.515589  0.953843  0.788979  1
  C  C22  1  0.484062  0.038737  0.213147  1
  C  C23  1  0.961263  0.515938  0.713147  1
  O  O24  1  0.099277  0.793762  0.985235  1
  O  O25  1  0.020242  0.696315  0.313733  1
  O  O26  1  0.303685  0.979758  0.813733  1
  O  O27  1  0.041632  0.278248  0.345648  1
  O  O28  1  0.073187  0.457216  0.208411  1
  O  O29  1  0.206238  0.900723  0.485235  1
  O  O30  1  0.404115  0.445912  0.892040  1
  O  O31  1  0.542784  0.926813  0.708411  1
  O  O32  1  0.401858  0.335079  0.586831  1
  O  O33  1  0.276125  0.016195  0.157399  1
  O  O34  1  0.721752  0.958368  0.845648  1
  O  O35  1  0.554088  0.595885  0.392040  1
  O  O36  1  0.460094  0.089646  0.291215  1
  O  O37  1  0.664921  0.598142  0.086831  1
  O  O38  1  0.767143  0.176876  0.497019  1
  O  O39  1  0.910354  0.539906  0.791215  1
  O  O40  1  0.983805  0.723875  0.657399  1
  O  O41  1  0.696695  0.008595  0.190071  1
  O  O42  1  0.991405  0.303305  0.690071  1
  O  O43  1  0.823124  0.232857  0.997019  1
