# generated using pymatgen
data_Li3TiMn2O6
_symmetry_space_group_name_H-M   'P 1'
_cell_length_a   15.96022172
_cell_length_b   10.03627756
_cell_length_c   10.03627765
_cell_angle_alpha   17.02221364
_cell_angle_beta   16.81210909
_cell_angle_gamma   16.81210595
_symmetry_Int_Tables_number   1
_chemical_formula_structural   Li3TiMn2O6
_chemical_formula_sum   'Li3 Ti1 Mn2 O6'
_cell_volume   118.25101360
_cell_formula_units_Z   1
loop_
 _symmetry_equiv_pos_site_id
 _symmetry_equiv_pos_as_xyz
  1  'x, y, z'
loop_
 _atom_site_type_symbol
 _atom_site_label
 _atom_site_symmetry_multiplicity
 _atom_site_fract_x
 _atom_site_fract_y
 _atom_site_fract_z
 _atom_site_occupancy
  Li  Li0  1  0.166667  0.500000  0.500000  1
  Li  Li1  1  0.519209  0.486113  0.486113  1
  Li  Li2  1  0.814124  0.513887  0.513887  1
  Ti  Ti3  1  0.666667  0.000000  0.000000  1
  Mn  Mn4  1  0.992218  0.007033  0.007033  1
  Mn  Mn5  1  0.341116  0.992967  0.992967  1
  O  O6  1  0.279966  0.237323  0.237323  1
  O  O7  1  0.570166  0.262012  0.262012  1
  O  O8  1  0.053368  0.762677  0.762677  1
  O  O9  1  0.879136  0.282885  0.282885  1
  O  O10  1  0.454197  0.717115  0.717115  1
  O  O11  1  0.763168  0.737988  0.737988  1
