# generated using pymatgen
data_Li6VO5F
_symmetry_space_group_name_H-M   'P 1'
_cell_length_a   5.55706876
_cell_length_b   5.62381149
_cell_length_c   10.72856636
_cell_angle_alpha   90.09720355
_cell_angle_beta   89.91564568
_cell_angle_gamma   60.31546895
_symmetry_Int_Tables_number   1
_chemical_formula_structural   Li6VO5F
_chemical_formula_sum   'Li12 V2 O10 F2'
_cell_volume   291.28525075
_cell_formula_units_Z   2
loop_
 _symmetry_equiv_pos_site_id
 _symmetry_equiv_pos_as_xyz
  1  'x, y, z'
loop_
 _atom_site_type_symbol
 _atom_site_label
 _atom_site_symmetry_multiplicity
 _atom_site_fract_x
 _atom_site_fract_y
 _atom_site_fract_z
 _atom_site_occupancy
  Li  Li0  1  0.038525  0.322351  0.743152  1
  Li  Li1  1  0.319002  0.327790  0.428527  1
  Li  Li2  1  0.351404  0.329062  0.911480  1
  Li  Li3  1  0.271165  0.703800  0.761505  1
  Li  Li4  1  0.660627  0.985629  0.746896  1
  Li  Li5  1  0.605262  0.380148  0.635781  1
  Li  Li6  1  0.364988  0.957077  0.240950  1
  Li  Li7  1  0.648799  0.338352  0.250008  1
  Li  Li8  1  0.678137  0.657349  0.411037  1
  Li  Li9  1  0.662080  0.660818  0.928361  1
  Li  Li10  1  0.989237  0.392297  0.136169  1
  Li  Li11  1  0.983345  0.724550  0.260864  1
  V  V12  1  0.996525  0.997672  0.000837  1
  V  V13  1  0.005653  0.996053  0.500444  1
  O  O14  1  0.984617  0.020849  0.664776  1
  O  O15  1  0.297268  0.994230  0.442640  1
  O  O16  1  0.007688  0.704283  0.447781  1
  O  O17  1  0.355978  0.341037  0.733504  1
  O  O18  1  0.291103  0.710459  0.947765  1
  O  O19  1  0.697239  0.291626  0.452810  1
  O  O20  1  0.700149  0.641301  0.233177  1
  O  O21  1  0.998835  0.297389  0.952815  1
  O  O22  1  0.710613  0.986280  0.944000  1
  O  O23  1  0.997282  0.020670  0.165154  1
  F  F24  1  0.309062  0.336002  0.234054  1
  F  F25  1  0.661668  0.644302  0.733707  1
