# generated using pymatgen
data_Li8Fe3Sn(PO4)6
_symmetry_space_group_name_H-M   'P 1'
_cell_length_a   9.08991380
_cell_length_b   9.05341669
_cell_length_c   8.83706460
_cell_angle_alpha   89.89211041
_cell_angle_beta   120.64097588
_cell_angle_gamma   59.89649286
_symmetry_Int_Tables_number   1
_chemical_formula_structural   Li8Fe3Sn(PO4)6
_chemical_formula_sum   'Li8 Fe3 Sn1 P6 O24'
_cell_volume   507.88393505
_cell_formula_units_Z   1
loop_
 _symmetry_equiv_pos_site_id
 _symmetry_equiv_pos_as_xyz
  1  'x, y, z'
loop_
 _atom_site_type_symbol
 _atom_site_label
 _atom_site_symmetry_multiplicity
 _atom_site_fract_x
 _atom_site_fract_y
 _atom_site_fract_z
 _atom_site_occupancy
  Li  Li0  1  0.035993  0.201952  0.680604  1
  Li  Li1  1  0.937875  0.030036  0.908630  1
  Li  Li2  1  0.443212  0.356948  0.682056  1
  Li  Li3  1  0.883917  0.758489  0.682256  1
  Li  Li4  1  0.029307  0.279986  0.172669  1
  Li  Li5  1  0.951671  0.524295  0.426137  1
  Li  Li6  1  0.454048  0.690986  0.172252  1
  Li  Li7  1  0.864284  0.856001  0.172153  1
  Fe  Fe8  1  0.691304  0.154131  0.535990  1
  Fe  Fe9  1  0.691740  0.654104  0.038654  1
  Fe  Fe10  1  0.292778  0.354463  0.940021  1
  Sn  Sn11  1  0.290423  0.855008  0.435752  1
  P  P12  1  0.200808  0.749614  0.750199  1
  P  P13  1  0.500082  0.049367  0.751411  1
  P  P14  1  0.798615  0.450836  0.750497  1
  P  P15  1  0.203612  0.547046  0.255400  1
  P  P16  1  0.504988  0.948149  0.255227  1
  P  P17  1  0.802174  0.250029  0.253450  1
  O  O18  1  0.015288  0.906920  0.747372  1
  O  O19  1  0.406222  0.698437  0.932766  1
  O  O20  1  0.172871  0.593437  0.732233  1
  O  O21  1  0.630545  0.895160  0.935664  1
  O  O22  1  0.326746  0.234992  0.732957  1
  O  O23  1  0.828516  0.473972  0.934480  1
  O  O24  1  0.189902  0.805282  0.575796  1
  O  O25  1  0.655340  0.075672  0.748916  1
  O  O26  1  0.382586  0.003684  0.578661  1
  O  O27  1  0.823770  0.267889  0.748478  1
  O  O28  1  0.579163  0.614116  0.577862  1
  O  O29  1  0.962294  0.441354  0.729927  1
  O  O30  1  0.016860  0.580206  0.253318  1
  O  O31  1  0.408847  0.398682  0.443218  1
  O  O32  1  0.168394  0.740863  0.241501  1
  O  O33  1  0.637338  0.963910  0.443400  1
  O  O34  1  0.336381  0.924029  0.244560  1
  O  O35  1  0.841690  0.193703  0.442195  1
  O  O36  1  0.197030  0.508603  0.085322  1
  O  O37  1  0.656010  0.763395  0.250668  1
  O  O38  1  0.376313  0.113254  0.085821  1
  O  O39  1  0.832061  0.405471  0.250766  1
  O  O40  1  0.598129  0.291926  0.084461  1
  O  O41  1  0.984955  0.091558  0.242411  1
