# generated using pymatgen
data_LiFe4(BO3)4
_symmetry_space_group_name_H-M   'P 1'
_cell_length_a   5.22220296
_cell_length_b   9.22219999
_cell_length_c   11.38154196
_cell_angle_alpha   66.75958251
_cell_angle_beta   76.16722850
_cell_angle_gamma   89.05221254
_symmetry_Int_Tables_number   1
_chemical_formula_structural   LiFe4(BO3)4
_chemical_formula_sum   'Li2 Fe8 B8 O24'
_cell_volume   487.18974345
_cell_formula_units_Z   2
loop_
 _symmetry_equiv_pos_site_id
 _symmetry_equiv_pos_as_xyz
  1  'x, y, z'
loop_
 _atom_site_type_symbol
 _atom_site_label
 _atom_site_symmetry_multiplicity
 _atom_site_fract_x
 _atom_site_fract_y
 _atom_site_fract_z
 _atom_site_occupancy
  Li  Li0  1  0.974739  0.963467  0.403377  1
  Li  Li1  1  0.511656  0.501501  0.652295  1
  Fe  Fe2  1  0.973050  0.643230  0.374765  1
  Fe  Fe3  1  0.728836  0.066013  0.879365  1
  Fe  Fe4  1  0.519845  0.851954  0.630802  1
  Fe  Fe5  1  0.771694  0.431760  0.128406  1
  Fe  Fe6  1  0.233008  0.571192  0.877361  1
  Fe  Fe7  1  0.478769  0.152965  0.379705  1
  Fe  Fe8  1  0.023844  0.343873  0.623802  1
  Fe  Fe9  1  0.262418  0.930760  0.131326  1
  B  B10  1  0.975307  0.302947  0.380641  1
  B  B11  1  0.744843  0.397225  0.871464  1
  B  B12  1  0.527159  0.192295  0.626090  1
  B  B13  1  0.757128  0.104351  0.132366  1
  B  B14  1  0.475895  0.819700  0.376605  1
  B  B15  1  0.226560  0.894391  0.880963  1
  B  B16  1  0.021027  0.678496  0.625847  1
  B  B17  1  0.275479  0.606413  0.124778  1
  O  O18  1  0.974289  0.920223  0.873526  1
  O  O19  1  0.877033  0.286170  0.829658  1
  O  O20  1  0.871175  0.468437  0.932719  1
  O  O21  1  0.900494  0.813772  0.601972  1
  O  O22  1  0.928654  0.559285  0.592862  1
  O  O23  1  0.751125  0.166689  0.677309  1
  O  O24  1  0.752692  0.330458  0.328433  1
  O  O25  1  0.504286  0.438643  0.848617  1
  O  O26  1  0.360755  0.786060  0.837210  1
  O  O27  1  0.564276  0.936062  0.414763  1
  O  O28  1  0.603115  0.689720  0.390002  1
  O  O29  1  0.360890  0.978513  0.930810  1
  O  O30  1  0.626581  0.029863  0.074478  1
  O  O31  1  0.382190  0.316375  0.631398  1
  O  O32  1  0.461585  0.093181  0.571708  1
  O  O33  1  0.619640  0.213372  0.176140  1
  O  O34  1  0.527159  0.578127  0.132260  1
  O  O35  1  0.245608  0.651614  0.677518  1
  O  O36  1  0.243375  0.846488  0.330751  1
  O  O37  1  0.044408  0.404007  0.433159  1
  O  O38  1  0.115272  0.176074  0.379713  1
  O  O39  1  0.140495  0.521898  0.074525  1
  O  O40  1  0.141932  0.714850  0.167409  1
  O  O41  1  0.002978  0.071291  0.147031  1
