# generated using pymatgen
data_Li2V4CrCuO12
_symmetry_space_group_name_H-M   'P 1'
_cell_length_a   6.87422645
_cell_length_b   6.87422620
_cell_length_c   5.81327855
_cell_angle_alpha   74.27718133
_cell_angle_beta   105.72282067
_cell_angle_gamma   97.41757905
_symmetry_Int_Tables_number   1
_chemical_formula_structural   Li2V4CrCuO12
_chemical_formula_sum   'Li2 V4 Cr1 Cu1 O12'
_cell_volume   254.07430820
_cell_formula_units_Z   1
loop_
 _symmetry_equiv_pos_site_id
 _symmetry_equiv_pos_as_xyz
  1  'x, y, z'
loop_
 _atom_site_type_symbol
 _atom_site_label
 _atom_site_symmetry_multiplicity
 _atom_site_fract_x
 _atom_site_fract_y
 _atom_site_fract_z
 _atom_site_occupancy
  Li  Li0  1  0.234761  0.234761  0.250000  1
  Li  Li1  1  0.750496  0.750496  0.750000  1
  V  V2  1  0.194608  0.605691  0.767306  1
  V  V3  1  0.391289  0.799566  0.262051  1
  V  V4  1  0.605691  0.194608  0.732694  1
  V  V5  1  0.799566  0.391289  0.237949  1
  Cr  Cr6  1  0.083032  0.083032  0.750000  1
  Cu  Cu7  1  0.902305  0.902305  0.250000  1
  O  O8  1  0.022712  0.804389  0.666984  1
  O  O9  1  0.099926  0.354419  0.830643  1
  O  O10  1  0.207734  0.983237  0.125593  1
  O  O11  1  0.368554  0.657860  0.558023  1
  O  O12  1  0.354419  0.099926  0.669357  1
  O  O13  1  0.365383  0.633458  0.069049  1
  O  O14  1  0.657860  0.368554  0.941977  1
  O  O15  1  0.630207  0.910377  0.312524  1
  O  O16  1  0.633458  0.365383  0.430951  1
  O  O17  1  0.804389  0.022712  0.833016  1
  O  O18  1  0.910377  0.630207  0.187476  1
  O  O19  1  0.983237  0.207734  0.374407  1
