# generated using pymatgen
data_MnCr3(PO4)6
_symmetry_space_group_name_H-M   'P 1'
_cell_length_a   8.74469238
_cell_length_b   8.74469179
_cell_length_c   8.74469206
_cell_angle_alpha   58.30198910
_cell_angle_beta   58.30199256
_cell_angle_gamma   58.30198989
_symmetry_Int_Tables_number   1
_chemical_formula_structural   MnCr3(PO4)6
_chemical_formula_sum   'Mn1 Cr3 P6 O24'
_cell_volume   454.45757488
_cell_formula_units_Z   1
loop_
 _symmetry_equiv_pos_site_id
 _symmetry_equiv_pos_as_xyz
  1  'x, y, z'
loop_
 _atom_site_type_symbol
 _atom_site_label
 _atom_site_symmetry_multiplicity
 _atom_site_fract_x
 _atom_site_fract_y
 _atom_site_fract_z
 _atom_site_occupancy
  Mn  Mn0  1  0.855670  0.855670  0.855670  1
  Cr  Cr1  1  0.142828  0.142828  0.142828  1
  Cr  Cr2  1  0.357083  0.357083  0.357083  1
  Cr  Cr3  1  0.642136  0.642136  0.642136  1
  P  P4  1  0.032875  0.750194  0.467844  1
  P  P5  1  0.467844  0.032875  0.750194  1
  P  P6  1  0.750194  0.467844  0.032875  1
  P  P7  1  0.247138  0.536036  0.965696  1
  P  P8  1  0.536036  0.965696  0.247138  1
  P  P9  1  0.965696  0.247138  0.536036  1
  O  O10  1  0.136314  0.278990  0.508888  1
  O  O11  1  0.278990  0.508888  0.136314  1
  O  O12  1  0.061745  0.923463  0.282236  1
  O  O13  1  0.508888  0.136314  0.278990  1
  O  O14  1  0.217717  0.577437  0.437545  1
  O  O15  1  0.011396  0.774796  0.640554  1
  O  O16  1  0.282236  0.061745  0.923463  1
  O  O17  1  0.437545  0.217717  0.577437  1
  O  O18  1  0.577437  0.437545  0.217717  1
  O  O19  1  0.219505  0.363716  0.991008  1
  O  O20  1  0.073037  0.720534  0.940802  1
  O  O21  1  0.363716  0.991008  0.219505  1
  O  O22  1  0.640554  0.011396  0.774796  1
  O  O23  1  0.923463  0.282236  0.061745  1
  O  O24  1  0.774796  0.640554  0.011396  1
  O  O25  1  0.422310  0.563048  0.781804  1
  O  O26  1  0.563048  0.781804  0.422310  1
  O  O27  1  0.720534  0.940802  0.073037  1
  O  O28  1  0.991008  0.219505  0.363716  1
  O  O29  1  0.781804  0.422310  0.563048  1
  O  O30  1  0.492249  0.861720  0.721686  1
  O  O31  1  0.940802  0.073037  0.720534  1
  O  O32  1  0.721686  0.492249  0.861720  1
  O  O33  1  0.861720  0.721686  0.492249  1
