# generated using pymatgen
data_Li3Ni2P2(O4F)2
_symmetry_space_group_name_H-M   'P 1'
_cell_length_a   10.65613100
_cell_length_b   6.30401913
_cell_length_c   10.95943941
_cell_angle_alpha   89.84304673
_cell_angle_beta   90.00000000
_cell_angle_gamma   90.00000000
_symmetry_Int_Tables_number   1
_chemical_formula_structural   Li3Ni2P2(O4F)2
_chemical_formula_sum   'Li12 Ni8 P8 O32 F8'
_cell_volume   736.21351182
_cell_formula_units_Z   4
loop_
 _symmetry_equiv_pos_site_id
 _symmetry_equiv_pos_as_xyz
  1  'x, y, z'
loop_
 _atom_site_type_symbol
 _atom_site_label
 _atom_site_symmetry_multiplicity
 _atom_site_fract_x
 _atom_site_fract_y
 _atom_site_fract_z
 _atom_site_occupancy
  Li  Li0  1  0.037031  0.754069  0.270962  1
  Li  Li1  1  0.228286  0.247854  0.084569  1
  Li  Li2  1  0.242057  0.506860  0.334155  1
  Li  Li3  1  0.257943  0.006860  0.834155  1
  Li  Li4  1  0.271714  0.747854  0.584569  1
  Li  Li5  1  0.462969  0.254069  0.770962  1
  Li  Li6  1  0.537031  0.745931  0.229038  1
  Li  Li7  1  0.728286  0.252146  0.415431  1
  Li  Li8  1  0.742057  0.993140  0.165845  1
  Li  Li9  1  0.757943  0.493140  0.665845  1
  Li  Li10  1  0.771714  0.752146  0.915431  1
  Li  Li11  1  0.962969  0.245931  0.729038  1
  Ni  Ni12  1  0.000000  0.000000  0.000000  1
  Ni  Ni13  1  0.000000  0.500000  0.000000  1
  Ni  Ni14  1  0.000000  0.000000  0.500000  1
  Ni  Ni15  1  0.000000  0.500000  0.500000  1
  Ni  Ni16  1  0.500000  0.000000  0.500000  1
  Ni  Ni17  1  0.500000  0.500000  0.500000  1
  Ni  Ni18  1  0.500000  0.000000  0.000000  1
  Ni  Ni19  1  0.500000  0.500000  0.000000  1
  P  P20  1  0.029603  0.752396  0.741506  1
  P  P21  1  0.239560  0.745368  0.077113  1
  P  P22  1  0.260440  0.245368  0.577113  1
  P  P23  1  0.470397  0.252396  0.241506  1
  P  P24  1  0.529603  0.747604  0.758494  1
  P  P25  1  0.739560  0.754632  0.422887  1
  P  P26  1  0.760440  0.254632  0.922887  1
  P  P27  1  0.970397  0.247604  0.258494  1
  O  O28  1  0.023862  0.247197  0.125568  1
  O  O29  1  0.025947  0.048430  0.323203  1
  O  O30  1  0.026272  0.448045  0.320622  1
  O  O31  1  0.117262  0.245816  0.545555  1
  O  O32  1  0.173412  0.765480  0.740224  1
  O  O33  1  0.182695  0.543528  0.018407  1
  O  O34  1  0.186801  0.949067  0.014202  1
  O  O35  1  0.216745  0.740753  0.214566  1
  O  O36  1  0.283255  0.240753  0.714566  1
  O  O37  1  0.317305  0.043528  0.518407  1
  O  O38  1  0.313199  0.449067  0.514202  1
  O  O39  1  0.326588  0.265480  0.240224  1
  O  O40  1  0.382738  0.745816  0.045555  1
  O  O41  1  0.473728  0.948045  0.820622  1
  O  O42  1  0.474053  0.548430  0.823203  1
  O  O43  1  0.476138  0.747197  0.625568  1
  O  O44  1  0.523862  0.252803  0.374432  1
  O  O45  1  0.526272  0.051955  0.179378  1
  O  O46  1  0.525947  0.451570  0.176797  1
  O  O47  1  0.617262  0.254184  0.954445  1
  O  O48  1  0.673412  0.734520  0.759776  1
  O  O49  1  0.686801  0.550933  0.485798  1
  O  O50  1  0.682695  0.956472  0.481593  1
  O  O51  1  0.716745  0.759247  0.285434  1
  O  O52  1  0.783255  0.259247  0.785434  1
  O  O53  1  0.813199  0.050933  0.985798  1
  O  O54  1  0.817305  0.456472  0.981593  1
  O  O55  1  0.826588  0.234520  0.259776  1
  O  O56  1  0.882738  0.754184  0.454445  1
  O  O57  1  0.973728  0.551955  0.679378  1
  O  O58  1  0.974053  0.951570  0.676797  1
  O  O59  1  0.976138  0.752803  0.874432  1
  F  F60  1  0.041161  0.246347  0.885867  1
  F  F61  1  0.122752  0.743377  0.479140  1
  F  F62  1  0.377248  0.243377  0.979140  1
  F  F63  1  0.458839  0.746347  0.385867  1
  F  F64  1  0.541161  0.253653  0.614133  1
  F  F65  1  0.622752  0.756623  0.020860  1
  F  F66  1  0.877248  0.256623  0.520860  1
  F  F67  1  0.958839  0.753653  0.114133  1
