# generated using pymatgen
data_Li3Mn(CoO2)4
_symmetry_space_group_name_H-M   'P 1'
_cell_length_a   5.93837304
_cell_length_b   5.93837293
_cell_length_c   5.93442176
_cell_angle_alpha   90.78411811
_cell_angle_beta   60.81407698
_cell_angle_gamma   60.06592056
_symmetry_Int_Tables_number   1
_chemical_formula_structural   Li3Mn(CoO2)4
_chemical_formula_sum   'Li3 Mn1 Co4 O8'
_cell_volume   148.91518081
_cell_formula_units_Z   1
loop_
 _symmetry_equiv_pos_site_id
 _symmetry_equiv_pos_as_xyz
  1  'x, y, z'
loop_
 _atom_site_type_symbol
 _atom_site_label
 _atom_site_symmetry_multiplicity
 _atom_site_fract_x
 _atom_site_fract_y
 _atom_site_fract_z
 _atom_site_occupancy
  Li  Li0  1  0.000000  0.000000  0.500000  1
  Li  Li1  1  0.500000  0.000000  0.500000  1
  Li  Li2  1  0.500000  0.500000  0.500000  1
  Mn  Mn3  1  0.500000  0.500000  0.000000  1
  Co  Co4  1  0.000000  0.500000  0.500000  1
  Co  Co5  1  0.000000  0.000000  0.000000  1
  Co  Co6  1  0.500000  0.000000  0.000000  1
  Co  Co7  1  0.000000  0.500000  0.000000  1
  O  O8  1  0.493437  0.264367  0.770930  1
  O  O9  1  0.965206  0.267544  0.767943  1
  O  O10  1  0.499601  0.733150  0.767943  1
  O  O11  1  0.985454  0.749596  0.764142  1
  O  O12  1  0.014546  0.250404  0.235858  1
  O  O13  1  0.500399  0.266850  0.232057  1
  O  O14  1  0.034794  0.732456  0.232057  1
  O  O15  1  0.506563  0.735633  0.229070  1
