# generated using pymatgen
data_Li2Ti(TeO4)3
_symmetry_space_group_name_H-M   'P 1'
_cell_length_a   7.29606698
_cell_length_b   7.07970640
_cell_length_c   8.52090716
_cell_angle_alpha   90.00000000
_cell_angle_beta   90.00000000
_cell_angle_gamma   87.35303604
_symmetry_Int_Tables_number   1
_chemical_formula_structural   Li2Ti(TeO4)3
_chemical_formula_sum   'Li4 Ti2 Te6 O24'
_cell_volume   439.66943538
_cell_formula_units_Z   2
loop_
 _symmetry_equiv_pos_site_id
 _symmetry_equiv_pos_as_xyz
  1  'x, y, z'
loop_
 _atom_site_type_symbol
 _atom_site_label
 _atom_site_symmetry_multiplicity
 _atom_site_fract_x
 _atom_site_fract_y
 _atom_site_fract_z
 _atom_site_occupancy
  Li  Li0  1  0.006740  0.484474  0.176737  1
  Li  Li1  1  0.493260  0.015526  0.176737  1
  Li  Li2  1  0.250000  0.750000  0.850451  1
  Li  Li3  1  0.750000  0.750000  0.298592  1
  Ti  Ti4  1  0.996746  0.009500  0.099203  1
  Ti  Ti5  1  0.503254  0.490500  0.099203  1
  Te  Te6  1  0.000168  0.501159  0.603805  1
  Te  Te7  1  0.250000  0.250000  0.918135  1
  Te  Te8  1  0.499832  0.998841  0.603805  1
  Te  Te9  1  0.250000  0.750000  0.409124  1
  Te  Te10  1  0.750000  0.250000  0.412047  1
  Te  Te11  1  0.750000  0.750000  0.916626  1
  O  O12  1  0.304553  0.047614  0.756019  1
  O  O13  1  0.262769  0.044366  0.071703  1
  O  O14  1  0.312009  0.017435  0.430327  1
  O  O15  1  0.187991  0.482565  0.430327  1
  O  O16  1  0.237231  0.455634  0.071703  1
  O  O17  1  0.195447  0.452386  0.756019  1
  O  O18  1  0.003181  0.806300  0.932900  1
  O  O19  1  0.060182  0.766451  0.585072  1
  O  O20  1  0.504358  0.296991  0.935472  1
  O  O21  1  0.058984  0.803410  0.258655  1
  O  O22  1  0.557942  0.263412  0.580117  1
  O  O23  1  0.567025  0.299201  0.256156  1
  O  O24  1  0.441016  0.696590  0.258655  1
  O  O25  1  0.439818  0.733549  0.585072  1
  O  O26  1  0.932975  0.200799  0.256156  1
  O  O27  1  0.496819  0.693700  0.932900  1
  O  O28  1  0.942058  0.236588  0.580117  1
  O  O29  1  0.995642  0.203009  0.935472  1
  O  O30  1  0.805124  0.554381  0.754138  1
  O  O31  1  0.764840  0.559553  0.085058  1
  O  O32  1  0.807153  0.521256  0.431444  1
  O  O33  1  0.692847  0.978744  0.431444  1
  O  O34  1  0.735160  0.940447  0.085058  1
  O  O35  1  0.694876  0.945619  0.754138  1
