# generated using pymatgen
data_Fe5(P2O7)4
_symmetry_space_group_name_H-M   'P 1'
_cell_length_a   12.70515792
_cell_length_b   9.48734725
_cell_length_c   10.77375288
_cell_angle_alpha   63.82099809
_cell_angle_beta   85.76709316
_cell_angle_gamma   73.86739036
_symmetry_Int_Tables_number   1
_chemical_formula_structural   Fe5(P2O7)4
_chemical_formula_sum   'Fe10 P16 O56'
_cell_volume   1117.74722098
_cell_formula_units_Z   2
loop_
 _symmetry_equiv_pos_site_id
 _symmetry_equiv_pos_as_xyz
  1  'x, y, z'
loop_
 _atom_site_type_symbol
 _atom_site_label
 _atom_site_symmetry_multiplicity
 _atom_site_fract_x
 _atom_site_fract_y
 _atom_site_fract_z
 _atom_site_occupancy
  Fe  Fe0  1  0.628181  0.091777  0.287786  1
  Fe  Fe1  1  0.990291  0.192381  0.007734  1
  Fe  Fe2  1  0.809462  0.510037  0.742874  1
  Fe  Fe3  1  0.690538  0.489963  0.257126  1
  Fe  Fe4  1  0.318347  0.480833  0.747947  1
  Fe  Fe5  1  0.509709  0.807619  0.992266  1
  Fe  Fe6  1  0.181653  0.519167  0.252053  1
  Fe  Fe7  1  0.356497  0.898743  0.703860  1
  Fe  Fe8  1  0.871819  0.908223  0.712214  1
  Fe  Fe9  1  0.143503  0.101257  0.296140  1
  P  P10  1  0.460811  0.153087  0.712095  1
  P  P11  1  0.058013  0.546421  0.810580  1
  P  P12  1  0.848478  0.815494  0.456221  1
  P  P13  1  0.295812  0.695575  0.963453  1
  P  P14  1  0.788035  0.703452  0.948223  1
  P  P15  1  0.556222  0.561734  0.807784  1
  P  P16  1  0.204188  0.304425  0.036547  1
  P  P17  1  0.150592  0.211650  0.542248  1
  P  P18  1  0.943778  0.438266  0.192216  1
  P  P19  1  0.539218  0.802197  0.286492  1
  P  P20  1  0.651522  0.184506  0.543779  1
  P  P21  1  0.039189  0.846913  0.287905  1
  P  P22  1  0.711965  0.296548  0.051777  1
  P  P23  1  0.960782  0.197803  0.713508  1
  P  P24  1  0.349408  0.788350  0.457752  1
  P  P25  1  0.441987  0.453579  0.189420  1
  O  O26  1  0.459878  0.711056  0.399163  1
  O  O27  1  0.302563  0.327695  0.950478  1
  O  O28  1  0.305193  0.644941  0.550686  1
  O  O29  1  0.888075  0.551326  0.037621  1
  O  O30  1  0.626881  0.091245  0.470312  1
  O  O31  1  0.467698  0.497731  0.780597  1
  O  O32  1  0.647388  0.672580  0.306388  1
  O  O33  1  0.990930  0.270430  0.186842  1
  O  O34  1  0.221094  0.277819  0.187062  1
  O  O35  1  0.345305  0.479772  0.276086  1
  O  O36  1  0.822293  0.657079  0.555015  1
  O  O37  1  0.545329  0.246609  0.617257  1
  O  O38  1  0.734105  0.075442  0.664805  1
  O  O39  1  0.277819  0.920922  0.329216  1
  O  O40  1  0.222181  0.079078  0.670784  1
  O  O41  1  0.515393  0.024665  0.856134  1
  O  O42  1  0.107615  0.472675  0.967703  1
  O  O43  1  0.032302  0.502269  0.219403  1
  O  O44  1  0.765895  0.924558  0.335195  1
  O  O45  1  0.684203  0.689052  0.034123  1
  O  O46  1  0.823811  0.856957  0.908711  1
  O  O47  1  0.953705  0.061103  0.680023  1
  O  O48  1  0.194807  0.355059  0.449314  1
  O  O49  1  0.849324  0.444957  0.286979  1
  O  O50  1  0.546295  0.938897  0.319977  1
  O  O51  1  0.040122  0.288944  0.600837  1
  O  O52  1  0.650676  0.555043  0.713021  1
  O  O53  1  0.497536  0.276434  0.228220  1
  O  O54  1  0.347752  0.833101  0.951116  1
  O  O55  1  0.392385  0.527325  0.032297  1
  O  O56  1  0.778920  0.686270  0.813097  1
  O  O57  1  0.509070  0.729570  0.813158  1
  O  O58  1  0.134186  0.711210  0.284100  1
  O  O59  1  0.278906  0.722181  0.812938  1
  O  O60  1  0.852612  0.327420  0.693612  1
  O  O61  1  0.954671  0.753391  0.382743  1
  O  O62  1  0.873119  0.908755  0.529688  1
  O  O63  1  0.119752  0.131589  0.458681  1
  O  O64  1  0.611925  0.448674  0.962379  1
  O  O65  1  0.068512  0.934130  0.364912  1
  O  O66  1  0.431488  0.065870  0.635088  1
  O  O67  1  0.677707  0.342921  0.444985  1
  O  O68  1  0.815797  0.310948  0.965877  1
  O  O69  1  0.380248  0.868410  0.541319  1
  O  O70  1  0.524053  0.555776  0.175550  1
  O  O71  1  0.154695  0.520228  0.723914  1
  O  O72  1  0.721080  0.313730  0.186903  1
  O  O73  1  0.365814  0.288790  0.715900  1
  O  O74  1  0.485404  0.871747  0.139900  1
  O  O75  1  0.014596  0.128253  0.860100  1
  O  O76  1  0.197437  0.672305  0.049522  1
  O  O77  1  0.676189  0.143043  0.091289  1
  O  O78  1  0.975947  0.444224  0.824450  1
  O  O79  1  0.002464  0.723566  0.771780  1
  O  O80  1  0.984607  0.975335  0.143866  1
  O  O81  1  0.152248  0.166899  0.048884  1
