# generated using pymatgen
data_Li4Mn3Sn3(TeO8)2
_symmetry_space_group_name_H-M   'P 1'
_cell_length_a   6.27519602
_cell_length_b   6.28115259
_cell_length_c   10.30355066
_cell_angle_alpha   90.00251699
_cell_angle_beta   90.37695092
_cell_angle_gamma   120.03795965
_symmetry_Int_Tables_number   1
_chemical_formula_structural   Li4Mn3Sn3(TeO8)2
_chemical_formula_sum   'Li4 Mn3 Sn3 Te2 O16'
_cell_volume   351.56473881
_cell_formula_units_Z   1
loop_
 _symmetry_equiv_pos_site_id
 _symmetry_equiv_pos_as_xyz
  1  'x, y, z'
loop_
 _atom_site_type_symbol
 _atom_site_label
 _atom_site_symmetry_multiplicity
 _atom_site_fract_x
 _atom_site_fract_y
 _atom_site_fract_z
 _atom_site_occupancy
  Li  Li0  1  0.347186  0.673554  0.900000  1
  Li  Li1  1  0.989419  0.994634  0.987950  1
  Li  Li2  1  0.990872  0.995372  0.495655  1
  Li  Li3  1  0.668035  0.334134  0.407280  1
  Mn  Mn4  1  0.662816  0.831225  0.210350  1
  Mn  Mn5  1  0.835419  0.667564  0.712688  1
  Mn  Mn6  1  0.835419  0.167859  0.712673  1
  Sn  Sn7  1  0.163418  0.829763  0.215344  1
  Sn  Sn8  1  0.163166  0.333697  0.215323  1
  Sn  Sn9  1  0.339901  0.169989  0.715916  1
  Te  Te10  1  0.355095  0.677583  0.486999  1
  Te  Te11  1  0.712767  0.356360  0.983826  1
  O  O12  1  0.142772  0.843920  0.609518  1
  O  O13  1  0.007695  0.503964  0.322875  1
  O  O14  1  0.325153  0.662615  0.108140  1
  O  O15  1  0.998190  0.999126  0.315477  1
  O  O16  1  0.981143  0.990604  0.806440  1
  O  O17  1  0.142811  0.298912  0.609507  1
  O  O18  1  0.465754  0.956910  0.351002  1
  O  O19  1  0.465591  0.508860  0.350990  1
  O  O20  1  0.296358  0.148303  0.108372  1
  O  O21  1  0.668164  0.834037  0.578528  1
  O  O22  1  0.534246  0.497737  0.825392  1
  O  O23  1  0.534221  0.036500  0.825339  1
  O  O24  1  0.687467  0.343739  0.615183  1
  O  O25  1  0.854047  0.681809  0.088860  1
  O  O26  1  0.979006  0.489487  0.859371  1
  O  O27  1  0.853868  0.172042  0.088843  1
