# generated using pymatgen
data_Li2MnNi3O8
_symmetry_space_group_name_H-M   'P 1'
_cell_length_a   5.74502131
_cell_length_b   5.73977951
_cell_length_c   5.86382306
_cell_angle_alpha   60.69734081
_cell_angle_beta   61.00892176
_cell_angle_gamma   60.03017913
_symmetry_Int_Tables_number   1
_chemical_formula_structural   Li2MnNi3O8
_chemical_formula_sum   'Li2 Mn1 Ni3 O8'
_cell_volume   138.49345269
_cell_formula_units_Z   1
loop_
 _symmetry_equiv_pos_site_id
 _symmetry_equiv_pos_as_xyz
  1  'x, y, z'
loop_
 _atom_site_type_symbol
 _atom_site_label
 _atom_site_symmetry_multiplicity
 _atom_site_fract_x
 _atom_site_fract_y
 _atom_site_fract_z
 _atom_site_occupancy
  Li  Li0  1  0.000000  0.000000  0.500000  1
  Li  Li1  1  0.000000  0.500000  0.500000  1
  Mn  Mn2  1  0.500000  0.000000  0.000000  1
  Ni  Ni3  1  0.500000  0.500000  0.000000  1
  Ni  Ni4  1  0.000000  0.000000  0.000000  1
  Ni  Ni5  1  0.000000  0.500000  0.000000  1
  O  O6  1  0.754429  0.742330  0.786169  1
  O  O7  1  0.754429  0.217072  0.786169  1
  O  O8  1  0.211066  0.746769  0.795395  1
  O  O9  1  0.223755  0.239584  0.797078  1
  O  O10  1  0.776245  0.760416  0.202922  1
  O  O11  1  0.788934  0.253231  0.204605  1
  O  O12  1  0.245571  0.782928  0.213831  1
  O  O13  1  0.245571  0.257670  0.213831  1
