# generated using pymatgen
data_Li6V3Cr(PO4)6
_symmetry_space_group_name_H-M   'P 1'
_cell_length_a   8.61660102
_cell_length_b   8.65312280
_cell_length_c   8.64386241
_cell_angle_alpha   61.35678294
_cell_angle_beta   61.27926247
_cell_angle_gamma   61.28622712
_symmetry_Int_Tables_number   1
_chemical_formula_structural   Li6V3Cr(PO4)6
_chemical_formula_sum   'Li6 V3 Cr1 P6 O24'
_cell_volume   469.11595142
_cell_formula_units_Z   1
loop_
 _symmetry_equiv_pos_site_id
 _symmetry_equiv_pos_as_xyz
  1  'x, y, z'
loop_
 _atom_site_type_symbol
 _atom_site_label
 _atom_site_symmetry_multiplicity
 _atom_site_fract_x
 _atom_site_fract_y
 _atom_site_fract_z
 _atom_site_occupancy
  Li  Li0  1  0.026452  0.006563  0.996973  1
  Li  Li1  1  0.750080  0.151040  0.350469  1
  Li  Li2  1  0.474944  0.500810  0.492907  1
  Li  Li3  1  0.241442  0.850960  0.652244  1
  Li  Li4  1  0.654695  0.243686  0.846210  1
  Li  Li5  1  0.846754  0.654938  0.243899  1
  V  V6  1  0.142772  0.145059  0.137684  1
  V  V7  1  0.355811  0.362812  0.355107  1
  V  V8  1  0.645686  0.645709  0.644919  1
  Cr  Cr9  1  0.854717  0.853864  0.855153  1
  P  P10  1  0.047383  0.750574  0.453286  1
  P  P11  1  0.454663  0.049697  0.748065  1
  P  P12  1  0.749388  0.456096  0.046064  1
  P  P13  1  0.248343  0.543857  0.957637  1
  P  P14  1  0.544437  0.962432  0.248904  1
  P  P15  1  0.955782  0.247112  0.539143  1
  O  O16  1  0.125648  0.287461  0.501546  1
  O  O17  1  0.298227  0.513363  0.118880  1
  O  O18  1  0.041662  0.921695  0.272930  1
  O  O19  1  0.528598  0.122112  0.294582  1
  O  O20  1  0.238407  0.594224  0.428119  1
  O  O21  1  0.018593  0.802398  0.615563  1
  O  O22  1  0.263800  0.072369  0.906076  1
  O  O23  1  0.454617  0.231572  0.576847  1
  O  O24  1  0.594048  0.432177  0.239588  1
  O  O25  1  0.202242  0.381812  0.986390  1
  O  O26  1  0.085091  0.735744  0.935784  1
  O  O27  1  0.373062  0.998659  0.210905  1
  O  O28  1  0.614988  0.017330  0.805668  1
  O  O29  1  0.906623  0.262482  0.069028  1
  O  O30  1  0.805391  0.615153  0.016431  1
  O  O31  1  0.408439  0.573041  0.763841  1
  O  O32  1  0.571938  0.770043  0.407241  1
  O  O33  1  0.732831  0.938160  0.082856  1
  O  O34  1  0.972512  0.200688  0.379359  1
  O  O35  1  0.765298  0.408280  0.568494  1
  O  O36  1  0.486392  0.888777  0.693766  1
  O  O37  1  0.935751  0.084014  0.730198  1
  O  O38  1  0.693943  0.485046  0.887727  1
  O  O39  1  0.888549  0.687190  0.490519  1
