# generated using pymatgen
data_Li3Cr2FeO6
_symmetry_space_group_name_H-M   'P 1'
_cell_length_a   15.46557200
_cell_length_b   9.87191987
_cell_length_c   9.87191966
_cell_angle_alpha   17.31639191
_cell_angle_beta   16.75355081
_cell_angle_gamma   16.75355521
_symmetry_Int_Tables_number   1
_chemical_formula_structural   Li3Cr2FeO6
_chemical_formula_sum   'Li3 Cr2 Fe1 O6'
_cell_volume   111.55091350
_cell_formula_units_Z   1
loop_
 _symmetry_equiv_pos_site_id
 _symmetry_equiv_pos_as_xyz
  1  'x, y, z'
loop_
 _atom_site_type_symbol
 _atom_site_label
 _atom_site_symmetry_multiplicity
 _atom_site_fract_x
 _atom_site_fract_y
 _atom_site_fract_z
 _atom_site_occupancy
  Li  Li0  1  0.166667  0.500000  0.500000  1
  Li  Li1  1  0.498916  0.500604  0.500604  1
  Li  Li2  1  0.834417  0.499396  0.499396  1
  Cr  Cr3  1  0.998986  0.000731  0.000731  1
  Cr  Cr4  1  0.334347  0.999269  0.999269  1
  Fe  Fe5  1  0.666667  0.000000  0.000000  1
  O  O6  1  0.244201  0.260297  0.260297  1
  O  O7  1  0.580991  0.258449  0.258449  1
  O  O8  1  0.089133  0.739703  0.739703  1
  O  O9  1  0.916645  0.255311  0.255311  1
  O  O10  1  0.416689  0.744689  0.744689  1
  O  O11  1  0.752343  0.741551  0.741551  1
