# generated using pymatgen
data_Li5TiMn9O20
_symmetry_space_group_name_H-M   'P 1'
_cell_length_a   5.87952135
_cell_length_b   6.05822772
_cell_length_c   24.46239461
_cell_angle_alpha   89.16130191
_cell_angle_beta   95.69881730
_cell_angle_gamma   120.24387794
_symmetry_Int_Tables_number   1
_chemical_formula_structural   Li5TiMn9O20
_chemical_formula_sum   'Li10 Ti2 Mn18 O40'
_cell_volume   748.38447594
_cell_formula_units_Z   2
loop_
 _symmetry_equiv_pos_site_id
 _symmetry_equiv_pos_as_xyz
  1  'x, y, z'
loop_
 _atom_site_type_symbol
 _atom_site_label
 _atom_site_symmetry_multiplicity
 _atom_site_fract_x
 _atom_site_fract_y
 _atom_site_fract_z
 _atom_site_occupancy
  Li  Li0  1  0.989481  0.000133  0.997768  1
  Li  Li1  1  0.711162  0.352388  0.051581  1
  Li  Li2  1  0.504656  0.757051  0.251631  1
  Li  Li3  1  0.795123  0.395085  0.199730  1
  Li  Li4  1  0.608603  0.789607  0.400661  1
  Li  Li5  1  0.293818  0.137709  0.447425  1
  Li  Li6  1  0.101091  0.555145  0.650525  1
  Li  Li7  1  0.405860  0.211085  0.599785  1
  Li  Li8  1  0.186700  0.590356  0.797586  1
  Li  Li9  1  0.905106  0.961591  0.852149  1
  Ti  Ti10  1  0.256100  0.882182  0.126072  1
  Ti  Ti11  1  0.754967  0.895740  0.621984  1
  Mn  Mn12  1  0.350904  0.676060  0.024908  1
  Mn  Mn13  1  0.249415  0.376196  0.124498  1
  Mn  Mn14  1  0.058551  0.770859  0.326360  1
  Mn  Mn15  1  0.751306  0.877807  0.124773  1
  Mn  Mn16  1  0.145942  0.079934  0.226071  1
  Mn  Mn17  1  0.056992  0.272514  0.325378  1
  Mn  Mn18  1  0.552994  0.268497  0.325225  1
  Mn  Mn19  1  0.348102  0.672483  0.524468  1
  Mn  Mn20  1  0.847717  0.670343  0.523558  1
  Mn  Mn21  1  0.951717  0.451126  0.424505  1
  Mn  Mn22  1  0.644469  0.572497  0.723504  1
  Mn  Mn23  1  0.144648  0.068728  0.724197  1
  Mn  Mn24  1  0.445632  0.979939  0.924816  1
  Mn  Mn25  1  0.849994  0.175411  0.523859  1
  Mn  Mn26  1  0.447270  0.480253  0.924637  1
  Mn  Mn27  1  0.641663  0.068980  0.724470  1
  Mn  Mn28  1  0.546505  0.275160  0.824529  1
  Mn  Mn29  1  0.946859  0.482837  0.924621  1
  O  O30  1  0.095317  0.548036  0.078186  1
  O  O31  1  0.546008  0.000365  0.079605  1
  O  O32  1  0.347189  0.942019  0.282547  1
  O  O33  1  0.552431  0.556281  0.081456  1
  O  O34  1  0.456604  0.754475  0.169465  1
  O  O35  1  0.043471  0.993963  0.079909  1
  O  O36  1  0.221385  0.579472  0.374143  1
  O  O37  1  0.407021  0.205740  0.171958  1
  O  O38  1  0.956387  0.760378  0.172640  1
  O  O39  1  0.889441  0.961239  0.278757  1
  O  O40  1  0.330367  0.397908  0.276791  1
  O  O41  1  0.126844  0.766051  0.472970  1
  O  O42  1  0.120189  0.316917  0.475078  1
  O  O43  1  0.038923  0.522039  0.565277  1
  O  O44  1  0.244827  0.127483  0.367007  1
  O  O45  1  0.944310  0.199798  0.165388  1
  O  O46  1  0.775089  0.588906  0.374005  1
  O  O47  1  0.864026  0.415062  0.283866  1
  O  O48  1  0.659740  0.827655  0.484330  1
  O  O49  1  0.027250  0.039008  0.575105  1
  O  O50  1  0.784391  0.150615  0.375441  1
  O  O51  1  0.344460  0.940304  0.767303  1
  O  O52  1  0.571779  0.573061  0.576189  1
  O  O53  1  0.679033  0.311689  0.474308  1
  O  O54  1  0.487795  0.752338  0.679103  1
  O  O55  1  0.849636  0.945467  0.768044  1
  O  O56  1  0.936901  0.755432  0.678267  1
  O  O57  1  0.245087  0.659724  0.880857  1
  O  O58  1  0.580828  0.032696  0.575875  1
  O  O59  1  0.440707  0.196816  0.680812  1
  O  O60  1  0.351650  0.388360  0.769271  1
  O  O61  1  0.151822  0.801743  0.969540  1
  O  O62  1  0.800673  0.390562  0.769019  1
  O  O63  1  0.601539  0.813537  0.970611  1
  O  O64  1  0.149608  0.353833  0.967388  1
  O  O65  1  0.291567  0.146789  0.878894  1
  O  O66  1  0.937394  0.193514  0.678536  1
  O  O67  1  0.745229  0.610012  0.882124  1
  O  O68  1  0.740449  0.161268  0.878373  1
  O  O69  1  0.648079  0.300666  0.968309  1
