# generated using pymatgen
data_Li5Fe2P2(CO7)2
_symmetry_space_group_name_H-M   'P 1'
_cell_length_a   8.47081684
_cell_length_b   7.93076874
_cell_length_c   9.61351185
_cell_angle_alpha   77.52988619
_cell_angle_beta   68.45033192
_cell_angle_gamma   103.05238689
_symmetry_Int_Tables_number   1
_chemical_formula_structural   Li5Fe2P2(CO7)2
_chemical_formula_sum   'Li10 Fe4 P4 C4 O28'
_cell_volume   552.41885058
_cell_formula_units_Z   2
loop_
 _symmetry_equiv_pos_site_id
 _symmetry_equiv_pos_as_xyz
  1  'x, y, z'
loop_
 _atom_site_type_symbol
 _atom_site_label
 _atom_site_symmetry_multiplicity
 _atom_site_fract_x
 _atom_site_fract_y
 _atom_site_fract_z
 _atom_site_occupancy
  Li  Li0  1  0.419406  0.029012  0.196699  1
  Li  Li1  1  0.199310  0.336671  0.216726  1
  Li  Li2  1  0.266986  0.310419  0.714283  1
  Li  Li3  1  0.031650  0.607210  0.728954  1
  Li  Li4  1  0.870903  0.237314  0.084951  1
  Li  Li5  1  0.542473  0.114018  0.751853  1
  Li  Li6  1  0.088586  0.905328  0.864727  1
  Li  Li7  1  0.930302  0.535617  0.220153  1
  Li  Li8  1  0.693146  0.833172  0.234985  1
  Li  Li9  1  0.761354  0.806039  0.732984  1
  Fe  Fe10  1  0.029658  0.873143  0.317215  1
  Fe  Fe11  1  0.526909  0.375930  0.320907  1
  Fe  Fe12  1  0.435373  0.767662  0.628096  1
  Fe  Fe13  1  0.932055  0.269778  0.631697  1
  P  P14  1  0.178524  0.010682  0.551639  1
  P  P15  1  0.286002  0.633665  0.391833  1
  P  P16  1  0.783376  0.132152  0.397230  1
  P  P17  1  0.674996  0.509246  0.557156  1
  C  C18  1  0.213570  0.059026  0.019307  1
  C  C19  1  0.735692  0.574708  0.034735  1
  C  C20  1  0.226518  0.569291  0.914323  1
  C  C21  1  0.748428  0.084783  0.929601  1
  O  O22  1  0.248786  0.123885  0.122794  1
  O  O23  1  0.112782  0.466928  0.056372  1
  O  O24  1  0.121846  0.135460  0.650129  1
  O  O25  1  0.343137  0.124857  0.387824  1
  O  O26  1  0.077287  0.908526  0.072467  1
  O  O27  1  0.121017  0.526698  0.551663  1
  O  O28  1  0.347124  0.495847  0.306979  1
  O  O29  1  0.616752  0.417758  0.072242  1
  O  O30  1  0.618806  0.018271  0.561182  1
  O  O31  1  0.838391  0.007043  0.298784  1
  O  O32  1  0.248573  0.775533  0.283538  1
  O  O33  1  0.732159  0.274096  0.295074  1
  O  O34  1  0.307040  0.136848  0.868254  1
  O  O35  1  0.015780  0.899059  0.534967  1
  O  O36  1  0.222637  0.520580  0.791597  1
  O  O37  1  0.514922  0.405942  0.525707  1
  O  O38  1  0.713568  0.019671  0.825991  1
  O  O39  1  0.445309  0.737100  0.424025  1
  O  O40  1  0.739437  0.623704  0.157341  1
  O  O41  1  0.946618  0.242845  0.413516  1
  O  O42  1  0.654579  0.006866  0.080653  1
  O  O43  1  0.229749  0.869509  0.654340  1
  O  O44  1  0.712933  0.367688  0.665504  1
  O  O45  1  0.345756  0.725943  0.876993  1
  O  O46  1  0.614449  0.647048  0.642327  1
  O  O47  1  0.839607  0.615795  0.397203  1
  O  O48  1  0.884516  0.235173  0.876750  1
  O  O49  1  0.849372  0.676912  0.892644  1
