# generated using pymatgen
data_Cr10Fe5O24
_symmetry_space_group_name_H-M   'P 1'
_cell_length_a   5.98596367
_cell_length_b   5.98933205
_cell_length_c   14.66931019
_cell_angle_alpha   90.02217694
_cell_angle_beta   90.00000000
_cell_angle_gamma   60.01860213
_symmetry_Int_Tables_number   1
_chemical_formula_structural   Cr10Fe5O24
_chemical_formula_sum   'Cr10 Fe5 O24'
_cell_volume   455.54797964
_cell_formula_units_Z   1
loop_
 _symmetry_equiv_pos_site_id
 _symmetry_equiv_pos_as_xyz
  1  'x, y, z'
loop_
 _atom_site_type_symbol
 _atom_site_label
 _atom_site_symmetry_multiplicity
 _atom_site_fract_x
 _atom_site_fract_y
 _atom_site_fract_z
 _atom_site_occupancy
  Cr  Cr0  1  0.171717  0.656568  0.207415  1
  Cr  Cr1  1  0.657561  0.171049  0.207682  1
  Cr  Cr2  1  0.837987  0.837977  0.540768  1
  Cr  Cr3  1  0.324036  0.837977  0.540768  1
  Cr  Cr4  1  0.171390  0.171049  0.207682  1
  Cr  Cr5  1  0.837754  0.324491  0.540973  1
  Cr  Cr6  1  0.665229  0.669542  0.714286  1
  Cr  Cr7  1  0.000199  0.999601  0.378033  1
  Cr  Cr8  1  0.993199  0.501248  0.873926  1
  Cr  Cr9  1  0.505553  0.501248  0.873926  1
  Fe  Fe10  1  0.333267  0.333467  0.045211  1
  Fe  Fe11  1  0.666635  0.666730  0.332858  1
  Fe  Fe12  1  0.000835  0.998330  0.000928  1
  Fe  Fe13  1  0.504995  0.990011  0.873960  1
  Fe  Fe14  1  0.333058  0.333885  0.666766  1
  O  O15  1  0.312990  0.843331  0.288509  1
  O  O16  1  0.843679  0.843331  0.288509  1
  O  O17  1  0.479599  0.479349  0.129316  1
  O  O18  1  0.041053  0.479349  0.129316  1
  O  O19  1  0.144347  0.711305  0.464954  1
  O  O20  1  0.333379  0.333242  0.275678  1
  O  O21  1  0.479429  0.041142  0.129302  1
  O  O22  1  0.666496  0.667008  0.465326  1
  O  O23  1  0.509298  0.981403  0.622138  1
  O  O24  1  0.000258  0.999483  0.132381  1
  O  O25  1  0.843407  0.313186  0.288724  1
  O  O26  1  0.977872  0.511922  0.622961  1
  O  O27  1  0.510206  0.511922  0.622961  1
  O  O28  1  0.813111  0.812136  0.795200  1
  O  O29  1  0.712173  0.142746  0.464595  1
  O  O30  1  0.374754  0.812136  0.795200  1
  O  O31  1  0.145081  0.142746  0.464595  1
  O  O32  1  0.812055  0.375888  0.796695  1
  O  O33  1  0.663826  0.672349  0.942905  1
  O  O34  1  0.000654  0.998693  0.607789  1
  O  O35  1  0.177245  0.645510  0.956147  1
  O  O36  1  0.333886  0.332228  0.799531  1
  O  O37  1  0.645951  0.178211  0.956042  1
  O  O38  1  0.175839  0.178211  0.956042  1
