# generated using pymatgen
data_LiVF5
_symmetry_space_group_name_H-M   'P 1'
_cell_length_a   6.75046635
_cell_length_b   8.74524174
_cell_length_c   6.32268223
_cell_angle_alpha   90.00000000
_cell_angle_beta   85.46093550
_cell_angle_gamma   90.00000000
_symmetry_Int_Tables_number   1
_chemical_formula_structural   LiVF5
_chemical_formula_sum   'Li4 V4 F20'
_cell_volume   372.08545454
_cell_formula_units_Z   4
loop_
 _symmetry_equiv_pos_site_id
 _symmetry_equiv_pos_as_xyz
  1  'x, y, z'
loop_
 _atom_site_type_symbol
 _atom_site_label
 _atom_site_symmetry_multiplicity
 _atom_site_fract_x
 _atom_site_fract_y
 _atom_site_fract_z
 _atom_site_occupancy
  Li  Li0  1  0.782112  0.896237  0.745988  1
  Li  Li1  1  0.717888  0.396237  0.754012  1
  Li  Li2  1  0.282112  0.603763  0.245988  1
  Li  Li3  1  0.217888  0.103763  0.254012  1
  V  V4  1  0.931481  0.377121  0.181781  1
  V  V5  1  0.568519  0.877121  0.318219  1
  V  V6  1  0.431481  0.122879  0.681781  1
  V  V7  1  0.068519  0.622879  0.818219  1
  F  F8  1  0.978874  0.604045  0.136037  1
  F  F9  1  0.955634  0.167616  0.185667  1
  F  F10  1  0.830234  0.390859  0.457461  1
  F  F11  1  0.800489  0.618539  0.771084  1
  F  F12  1  0.812723  0.889329  0.419420  1
  F  F13  1  0.699511  0.118539  0.728916  1
  F  F14  1  0.687277  0.389329  0.080580  1
  F  F15  1  0.669766  0.890859  0.042539  1
  F  F16  1  0.544366  0.667616  0.314333  1
  F  F17  1  0.521126  0.104045  0.363963  1
  F  F18  1  0.478874  0.895955  0.636037  1
  F  F19  1  0.455634  0.332384  0.685667  1
  F  F20  1  0.330234  0.109141  0.957461  1
  F  F21  1  0.312723  0.610671  0.919420  1
  F  F22  1  0.300489  0.881461  0.271084  1
  F  F23  1  0.187277  0.110671  0.580580  1
  F  F24  1  0.199511  0.381461  0.228916  1
  F  F25  1  0.169766  0.609141  0.542539  1
  F  F26  1  0.044366  0.832384  0.814333  1
  F  F27  1  0.021126  0.395955  0.863963  1
