# generated using pymatgen
data_Li4Ti3Co3(NiO8)2
_symmetry_space_group_name_H-M   'P 1'
_cell_length_a   5.76414901
_cell_length_b   5.81190634
_cell_length_c   9.64508399
_cell_angle_alpha   89.91857605
_cell_angle_beta   90.20562375
_cell_angle_gamma   120.26417082
_symmetry_Int_Tables_number   1
_chemical_formula_structural   Li4Ti3Co3(NiO8)2
_chemical_formula_sum   'Li4 Ti3 Co3 Ni2 O16'
_cell_volume   279.07785172
_cell_formula_units_Z   1
loop_
 _symmetry_equiv_pos_site_id
 _symmetry_equiv_pos_as_xyz
  1  'x, y, z'
loop_
 _atom_site_type_symbol
 _atom_site_label
 _atom_site_symmetry_multiplicity
 _atom_site_fract_x
 _atom_site_fract_y
 _atom_site_fract_z
 _atom_site_occupancy
  Li  Li0  1  0.347520  0.673355  0.890231  1
  Li  Li1  1  0.971923  0.986948  0.996008  1
  Li  Li2  1  0.977827  0.989498  0.499173  1
  Li  Li3  1  0.681429  0.339963  0.396813  1
  Ti  Ti4  1  0.174470  0.833893  0.215261  1
  Ti  Ti5  1  0.177711  0.340357  0.215153  1
  Ti  Ti6  1  0.344169  0.172993  0.714606  1
  Co  Co7  1  0.661187  0.831416  0.212967  1
  Co  Co8  1  0.834015  0.663721  0.713679  1
  Co  Co9  1  0.833130  0.169438  0.713645  1
  Ni  Ni10  1  0.329793  0.665071  0.491406  1
  Ni  Ni11  1  0.665038  0.332370  0.986696  1
  O  O12  1  0.152161  0.835834  0.605892  1
  O  O13  1  0.039491  0.519273  0.332145  1
  O  O14  1  0.330502  0.666143  0.100411  1
  O  O15  1  0.991737  0.995822  0.313808  1
  O  O16  1  0.993437  0.996334  0.811398  1
  O  O17  1  0.151232  0.316522  0.605747  1
  O  O18  1  0.495215  0.969077  0.332782  1
  O  O19  1  0.495269  0.525240  0.332800  1
  O  O20  1  0.317729  0.159222  0.101851  1
  O  O21  1  0.677245  0.839089  0.616075  1
  O  O22  1  0.529323  0.491077  0.832267  1
  O  O23  1  0.530204  0.037970  0.832014  1
  O  O24  1  0.674770  0.337526  0.605290  1
  O  O25  1  0.827023  0.677338  0.108762  1
  O  O26  1  0.969008  0.484022  0.822051  1
  O  O27  1  0.827438  0.150785  0.108910  1
