# generated using pymatgen
data_LiV2(SiO4)2
_symmetry_space_group_name_H-M   'P 1'
_cell_length_a   8.98033064
_cell_length_b   6.40315807
_cell_length_c   4.85773429
_cell_angle_alpha   89.98281714
_cell_angle_beta   90.01291467
_cell_angle_gamma   89.66243488
_symmetry_Int_Tables_number   1
_chemical_formula_structural   LiV2(SiO4)2
_chemical_formula_sum   'Li2 V4 Si4 O16'
_cell_volume   279.32688495
_cell_formula_units_Z   2
loop_
 _symmetry_equiv_pos_site_id
 _symmetry_equiv_pos_as_xyz
  1  'x, y, z'
loop_
 _atom_site_type_symbol
 _atom_site_label
 _atom_site_symmetry_multiplicity
 _atom_site_fract_x
 _atom_site_fract_y
 _atom_site_fract_z
 _atom_site_occupancy
  Li  Li0  1  0.334654  0.246350  0.977218  1
  Li  Li1  1  0.835316  0.246515  0.523133  1
  V  V2  1  0.000691  0.997996  0.001852  1
  V  V3  1  0.000298  0.512508  0.007365  1
  V  V4  1  0.500676  0.998030  0.498472  1
  V  V5  1  0.500359  0.512323  0.492502  1
  Si  Si6  1  0.177510  0.248079  0.475838  1
  Si  Si7  1  0.322392  0.748990  0.975260  1
  Si  Si8  1  0.677507  0.248170  0.024340  1
  Si  Si9  1  0.822390  0.749128  0.524428  1
  O  O10  1  0.119597  0.040741  0.324351  1
  O  O11  1  0.109838  0.451047  0.309222  1
  O  O12  1  0.122184  0.259954  0.801009  1
  O  O13  1  0.138632  0.742027  0.925860  1
  O  O14  1  0.360346  0.259383  0.410428  1
  O  O15  1  0.385924  0.739161  0.297437  1
  O  O16  1  0.386594  0.538310  0.816120  1
  O  O17  1  0.376958  0.964669  0.830948  1
  O  O18  1  0.619395  0.040960  0.175750  1
  O  O19  1  0.609914  0.451103  0.190674  1
  O  O20  1  0.622301  0.260189  0.699143  1
  O  O21  1  0.638611  0.742213  0.573859  1
  O  O22  1  0.860371  0.259581  0.089741  1
  O  O23  1  0.886043  0.739571  0.202248  1
  O  O24  1  0.886652  0.538413  0.683638  1
  O  O25  1  0.877002  0.964590  0.669163  1
