# generated using pymatgen
data_LiVF4
_symmetry_space_group_name_H-M   'P 1'
_cell_length_a   11.56419918
_cell_length_b   5.97193119
_cell_length_c   8.90017004
_cell_angle_alpha   88.84568985
_cell_angle_beta   89.61104303
_cell_angle_gamma   90.90471187
_symmetry_Int_Tables_number   1
_chemical_formula_structural   LiVF4
_chemical_formula_sum   'Li8 V8 F32'
_cell_volume   614.43422986
_cell_formula_units_Z   8
loop_
 _symmetry_equiv_pos_site_id
 _symmetry_equiv_pos_as_xyz
  1  'x, y, z'
loop_
 _atom_site_type_symbol
 _atom_site_label
 _atom_site_symmetry_multiplicity
 _atom_site_fract_x
 _atom_site_fract_y
 _atom_site_fract_z
 _atom_site_occupancy
  Li  Li0  1  0.206740  0.338154  0.713861  1
  Li  Li1  1  0.369740  0.267449  0.988625  1
  Li  Li2  1  0.362149  0.750766  0.436260  1
  Li  Li3  1  0.625534  0.243920  0.935693  1
  Li  Li4  1  0.614440  0.740288  0.486712  1
  Li  Li5  1  0.887782  0.210043  0.955028  1
  Li  Li6  1  0.872075  0.744800  0.434880  1
  Li  Li7  1  0.949806  0.384751  0.247490  1
  V  V8  1  0.064716  0.780111  0.101508  1
  V  V9  1  0.194755  0.298164  0.313393  1
  V  V10  1  0.312223  0.801296  0.811864  1
  V  V11  1  0.447907  0.261305  0.600885  1
  V  V12  1  0.556819  0.728557  0.098620  1
  V  V13  1  0.690940  0.196578  0.303262  1
  V  V14  1  0.810361  0.696292  0.814000  1
  V  V15  1  0.935458  0.232877  0.603003  1
  F  F16  1  0.962559  0.955860  0.519307  1
  F  F17  1  0.041684  0.342213  0.428978  1
  F  F18  1  0.053266  0.265492  0.744653  1
  F  F19  1  0.096627  0.445377  0.150515  1
  F  F20  1  0.145796  0.987315  0.259800  1
  F  F21  1  0.195890  0.724790  0.677751  1
  F  F22  1  0.211273  0.725704  0.989196  1
  F  F23  1  0.269386  0.108484  0.852576  1
  F  F24  1  0.237250  0.591785  0.367627  1
  F  F25  1  0.287838  0.225652  0.513434  1
  F  F26  1  0.326112  0.264173  0.189229  1
  F  F27  1  0.361907  0.470410  0.766538  1
  F  F28  1  0.408284  0.925982  0.636131  1
  F  F29  1  0.455301  0.775726  0.259350  1
  F  F30  1  0.449256  0.870946  0.945853  1
  F  F31  1  0.512492  0.449019  0.012145  1
  F  F32  1  0.482741  0.546928  0.513342  1
  F  F33  1  0.554573  0.136850  0.440110  1
  F  F34  1  0.562188  0.221368  0.745842  1
  F  F35  1  0.602438  0.065040  0.132195  1
  F  F36  1  0.644334  0.509710  0.254253  1
  F  F37  1  0.690082  0.730787  0.670897  1
  F  F38  1  0.700992  0.783664  0.979516  1
  F  F39  1  0.765734  0.394068  0.879774  1
  F  F40  1  0.732586  0.894460  0.369504  1
  F  F41  1  0.803123  0.308331  0.458818  1
  F  F42  1  0.822168  0.232831  0.166462  1
  F  F43  1  0.853295  0.027675  0.774531  1
  F  F44  1  0.898737  0.558830  0.643191  1
  F  F45  1  0.941508  0.705985  0.244616  1
  F  F46  1  0.950613  0.650036  0.942024  1
  F  F47  1  0.013802  0.056980  0.029202  1
