# generated using pymatgen
data_La4CuO8
_symmetry_space_group_name_H-M   'P 1'
_cell_length_a   5.27671700
_cell_length_b   7.04592710
_cell_length_c   5.28760692
_cell_angle_alpha   112.04286273
_cell_angle_beta   89.99938950
_cell_angle_gamma   89.99863548
_symmetry_Int_Tables_number   1
_chemical_formula_structural   La4CuO8
_chemical_formula_sum   'La4 Cu1 O8'
_cell_volume   182.21979919
_cell_formula_units_Z   1
loop_
 _symmetry_equiv_pos_site_id
 _symmetry_equiv_pos_as_xyz
  1  'x, y, z'
loop_
 _atom_site_type_symbol
 _atom_site_label
 _atom_site_symmetry_multiplicity
 _atom_site_fract_x
 _atom_site_fract_y
 _atom_site_fract_z
 _atom_site_occupancy
  La  La0  1  -0.000010  0.268795  0.634394  1
  La  La1  1  0.999989  0.731226  0.365606  1
  La  La2  1  0.499975  0.272880  0.136454  1
  La  La3  1  0.500016  0.727106  0.863575  1
  Cu  Cu4  1  -0.000012  0.000002  0.000012  1
  O  O5  1  0.000022  0.362948  0.181412  1
  O  O6  1  0.000002  0.637056  0.818576  1
  O  O7  1  0.243806  0.000019  0.754329  1
  O  O8  1  0.243787  0.999974  0.245648  1
  O  O9  1  0.500003  0.371892  0.685783  1
  O  O10  1  0.499980  0.628104  0.314223  1
  O  O11  1  0.756217  0.000022  0.754342  1
  O  O12  1  0.756224  0.999977  0.245645  1
