# generated using pymatgen
data_LiCo3Sb(PO4)6
_symmetry_space_group_name_H-M   'P 1'
_cell_length_a   8.75727554
_cell_length_b   8.75727594
_cell_length_c   8.75727534
_cell_angle_alpha   58.53826622
_cell_angle_beta   58.53827030
_cell_angle_gamma   58.53827508
_symmetry_Int_Tables_number   1
_chemical_formula_structural   LiCo3Sb(PO4)6
_chemical_formula_sum   'Li1 Co3 Sb1 P6 O24'
_cell_volume   459.01286968
_cell_formula_units_Z   1
loop_
 _symmetry_equiv_pos_site_id
 _symmetry_equiv_pos_as_xyz
  1  'x, y, z'
loop_
 _atom_site_type_symbol
 _atom_site_label
 _atom_site_symmetry_multiplicity
 _atom_site_fract_x
 _atom_site_fract_y
 _atom_site_fract_z
 _atom_site_occupancy
  Li  Li0  1  0.010116  0.010116  0.010116  1
  Co  Co1  1  0.147804  0.147804  0.147804  1
  Co  Co2  1  0.356270  0.356270  0.356270  1
  Co  Co3  1  0.644012  0.644012  0.644012  1
  Sb  Sb4  1  0.856252  0.856252  0.856252  1
  P  P5  1  0.032167  0.749281  0.459018  1
  P  P6  1  0.459018  0.032167  0.749281  1
  P  P7  1  0.749281  0.459018  0.032167  1
  P  P8  1  0.256270  0.538540  0.959495  1
  P  P9  1  0.538540  0.959495  0.256270  1
  P  P10  1  0.959495  0.256270  0.538540  1
  O  O11  1  0.136237  0.278767  0.509533  1
  O  O12  1  0.278767  0.509533  0.136237  1
  O  O13  1  0.057423  0.919594  0.271901  1
  O  O14  1  0.509533  0.136237  0.278767  1
  O  O15  1  0.214647  0.575232  0.437557  1
  O  O16  1  0.016459  0.780962  0.627943  1
  O  O17  1  0.271901  0.057423  0.919594  1
  O  O18  1  0.437557  0.214647  0.575232  1
  O  O19  1  0.575232  0.437557  0.214647  1
  O  O20  1  0.210522  0.377351  0.987409  1
  O  O21  1  0.079516  0.731122  0.940129  1
  O  O22  1  0.377351  0.987409  0.210522  1
  O  O23  1  0.627943  0.016459  0.780962  1
  O  O24  1  0.919594  0.271901  0.057423  1
  O  O25  1  0.780962  0.627943  0.016459  1
  O  O26  1  0.428467  0.562310  0.776446  1
  O  O27  1  0.562310  0.776446  0.428467  1
  O  O28  1  0.731122  0.940129  0.079516  1
  O  O29  1  0.987409  0.210522  0.377351  1
  O  O30  1  0.776446  0.428467  0.562310  1
  O  O31  1  0.491016  0.856065  0.724167  1
  O  O32  1  0.940129  0.079516  0.731122  1
  O  O33  1  0.724167  0.491016  0.856065  1
  O  O34  1  0.856065  0.724167  0.491016  1
