# generated using pymatgen
data_Li3Cr2P2(CO7)2
_symmetry_space_group_name_H-M   'P 1'
_cell_length_a   8.30207156
_cell_length_b   5.09126012
_cell_length_c   6.38192605
_cell_angle_alpha   89.67823419
_cell_angle_beta   90.17449030
_cell_angle_gamma   84.83034979
_symmetry_Int_Tables_number   1
_chemical_formula_structural   Li3Cr2P2(CO7)2
_chemical_formula_sum   'Li3 Cr2 P2 C2 O14'
_cell_volume   268.64806658
_cell_formula_units_Z   1
loop_
 _symmetry_equiv_pos_site_id
 _symmetry_equiv_pos_as_xyz
  1  'x, y, z'
loop_
 _atom_site_type_symbol
 _atom_site_label
 _atom_site_symmetry_multiplicity
 _atom_site_fract_x
 _atom_site_fract_y
 _atom_site_fract_z
 _atom_site_occupancy
  Li  Li0  1  0.276056  0.249167  0.455929  1
  Li  Li1  1  0.727135  0.745492  0.969973  1
  Li  Li2  1  0.906918  0.231597  0.744968  1
  Cr  Cr3  1  0.323462  0.796981  0.754614  1
  Cr  Cr4  1  0.675611  0.201621  0.257953  1
  P  P5  1  0.416335  0.728263  0.251886  1
  P  P6  1  0.578611  0.277249  0.751588  1
  C  C7  1  0.043238  0.695754  0.750508  1
  C  C8  1  0.954823  0.297898  0.250562  1
  O  O9  1  0.094470  0.358596  0.276829  1
  O  O10  1  0.080950  0.940699  0.753251  1
  O  O11  1  0.168832  0.522361  0.727843  1
  O  O12  1  0.312571  0.796368  0.058351  1
  O  O13  1  0.319195  0.833540  0.442923  1
  O  O14  1  0.423204  0.141365  0.732002  1
  O  O15  1  0.462794  0.426303  0.276274  1
  O  O16  1  0.538980  0.578467  0.775385  1
  O  O17  1  0.577473  0.867042  0.231978  1
  O  O18  1  0.689444  0.170844  0.937290  1
  O  O19  1  0.695118  0.215134  0.561900  1
  O  O20  1  0.826826  0.477092  0.221829  1
  O  O21  1  0.908421  0.058290  0.255303  1
  O  O22  1  0.902093  0.626960  0.772549  1
