# generated using pymatgen
data_Li3V2(O2F)2
_symmetry_space_group_name_H-M   'P 1'
_cell_length_a   6.03219999
_cell_length_b   6.05306239
_cell_length_c   15.07458038
_cell_angle_alpha   94.94653407
_cell_angle_beta   80.25103267
_cell_angle_gamma   121.15275872
_symmetry_Int_Tables_number   1
_chemical_formula_structural   Li3V2(O2F)2
_chemical_formula_sum   'Li12 V8 O16 F8'
_cell_volume   464.24365461
_cell_formula_units_Z   4
loop_
 _symmetry_equiv_pos_site_id
 _symmetry_equiv_pos_as_xyz
  1  'x, y, z'
loop_
 _atom_site_type_symbol
 _atom_site_label
 _atom_site_symmetry_multiplicity
 _atom_site_fract_x
 _atom_site_fract_y
 _atom_site_fract_z
 _atom_site_occupancy
  Li  Li0  1  0.094864  0.879028  0.170441  1
  Li  Li1  1  0.096963  0.299927  0.168181  1
  Li  Li2  1  0.188654  0.666595  0.307027  1
  Li  Li3  1  0.598633  0.838469  0.159034  1
  Li  Li4  1  0.336996  0.836534  0.663789  1
  Li  Li5  1  0.492732  0.494054  0.038969  1
  Li  Li6  1  0.322982  0.329401  0.669136  1
  Li  Li7  1  0.492383  0.021136  0.036074  1
  Li  Li8  1  0.668390  0.640768  0.289992  1
  Li  Li9  1  0.833894  0.843638  0.667313  1
  Li  Li10  1  0.963361  0.495637  0.045543  1
  Li  Li11  1  0.669716  0.166136  0.288455  1
  V  V12  1  0.248939  0.499911  0.502668  1
  V  V13  1  0.248433  0.004426  0.493299  1
  V  V14  1  0.426786  0.676471  0.836618  1
  V  V15  1  0.744589  0.495077  0.509409  1
  V  V16  1  0.421587  0.166138  0.830219  1
  V  V17  1  0.750938  0.007069  0.496681  1
  V  V18  1  0.919143  0.665323  0.831604  1
  V  V19  1  0.926083  0.177136  0.834253  1
  O  O20  1  0.063250  0.689018  0.572399  1
  O  O21  1  0.228930  0.833643  0.896552  1
  O  O22  1  0.442775  0.833474  0.431164  1
  O  O23  1  0.140614  0.505894  0.760074  1
  O  O24  1  0.050134  0.154194  0.571538  1
  O  O25  1  0.444815  0.319925  0.435515  1
  O  O26  1  0.209049  0.330160  0.897505  1
  O  O27  1  0.109969  0.002016  0.756116  1
  O  O28  1  0.549013  0.680229  0.577635  1
  O  O29  1  0.706841  0.836034  0.899756  1
  O  O30  1  0.929681  0.825220  0.436947  1
  O  O31  1  0.610315  0.505900  0.760412  1
  O  O32  1  0.533299  0.148010  0.573147  1
  O  O33  1  0.933896  0.314790  0.436636  1
  O  O34  1  0.731320  0.332526  0.899121  1
  O  O35  1  0.627319  0.996651  0.760775  1
  F  F36  1  0.304875  0.669176  0.076982  1
  F  F37  1  0.365413  0.517298  0.244111  1
  F  F38  1  0.291241  0.165709  0.083875  1
  F  F39  1  0.365715  0.968321  0.244132  1
  F  F40  1  0.797738  0.674238  0.088117  1
  F  F41  1  0.883250  0.506493  0.258229  1
  F  F42  1  0.796074  0.166811  0.088811  1
  F  F43  1  0.855069  0.988064  0.245077  1
