# generated using pymatgen
data_Li2V(PO4)2
_symmetry_space_group_name_H-M   'P 1'
_cell_length_a   4.89746649
_cell_length_b   17.38433149
_cell_length_c   6.59392297
_cell_angle_alpha   90.00000000
_cell_angle_beta   94.86504313
_cell_angle_gamma   90.00000000
_symmetry_Int_Tables_number   1
_chemical_formula_structural   Li2V(PO4)2
_chemical_formula_sum   'Li8 V4 P8 O32'
_cell_volume   559.37859855
_cell_formula_units_Z   4
loop_
 _symmetry_equiv_pos_site_id
 _symmetry_equiv_pos_as_xyz
  1  'x, y, z'
loop_
 _atom_site_type_symbol
 _atom_site_label
 _atom_site_symmetry_multiplicity
 _atom_site_fract_x
 _atom_site_fract_y
 _atom_site_fract_z
 _atom_site_occupancy
  Li  Li0  1  0.713323  0.620183  0.992404  1
  Li  Li1  1  0.216379  0.882968  0.512451  1
  Li  Li2  1  0.690373  0.804878  0.320412  1
  Li  Li3  1  0.786677  0.120183  0.507596  1
  Li  Li4  1  0.233942  0.555076  0.201569  1
  Li  Li5  1  0.283621  0.382968  0.987549  1
  Li  Li6  1  0.809627  0.304878  0.179588  1
  Li  Li7  1  0.266058  0.055076  0.298431  1
  V  V8  1  0.790167  0.129670  0.978247  1
  V  V9  1  0.709833  0.629670  0.521753  1
  V  V10  1  0.306977  0.372904  0.497264  1
  V  V11  1  0.193023  0.872904  0.002736  1
  P  P12  1  0.169561  0.713049  0.279048  1
  P  P13  1  0.330439  0.213049  0.220952  1
  P  P14  1  0.231762  0.536262  0.725401  1
  P  P15  1  0.731609  0.962908  0.225071  1
  P  P16  1  0.268238  0.036262  0.774599  1
  P  P17  1  0.666987  0.785904  0.779621  1
  P  P18  1  0.833013  0.285904  0.720379  1
  P  P19  1  0.768391  0.462908  0.274929  1
  O  O20  1  0.979109  0.808052  0.822030  1
  O  O21  1  0.871093  0.931968  0.417872  1
  O  O22  1  0.954179  0.323616  0.912262  1
  O  O23  1  0.282244  0.946171  0.795057  1
  O  O24  1  0.648591  0.695962  0.756518  1
  O  O25  1  0.520891  0.308052  0.677970  1
  O  O26  1  0.126554  0.069867  0.959364  1
  O  O27  1  0.058994  0.665428  0.101353  1
  O  O28  1  0.574552  0.064847  0.795711  1
  O  O29  1  0.977674  0.307961  0.525371  1
  O  O30  1  0.418768  0.938007  0.208613  1
  O  O31  1  0.485433  0.696253  0.326401  1
  O  O32  1  0.373446  0.569867  0.540636  1
  O  O33  1  0.774674  0.553468  0.287179  1
  O  O34  1  0.441006  0.165428  0.398647  1
  O  O35  1  0.868937  0.931708  0.036478  1
  O  O36  1  0.018653  0.695167  0.473892  1
  O  O37  1  0.217756  0.446171  0.704943  1
  O  O38  1  0.131096  0.059291  0.572032  1
  O  O39  1  0.725326  0.053468  0.212821  1
  O  O40  1  0.371348  0.302076  0.253935  1
  O  O41  1  0.631063  0.431708  0.463522  1
  O  O42  1  0.851409  0.195962  0.743482  1
  O  O43  1  0.014567  0.196253  0.173599  1
  O  O44  1  0.128652  0.802076  0.246065  1
  O  O45  1  0.368904  0.559291  0.927968  1
  O  O46  1  0.081232  0.438007  0.291387  1
  O  O47  1  0.481347  0.195167  0.026108  1
  O  O48  1  0.545821  0.823616  0.587738  1
  O  O49  1  0.925448  0.564847  0.704289  1
  O  O50  1  0.628907  0.431968  0.082128  1
  O  O51  1  0.522326  0.807961  0.974629  1
