# generated using pymatgen
data_La2Ti2CrO9
_symmetry_space_group_name_H-M   'P 1'
_cell_length_a   5.46354173
_cell_length_b   5.45221215
_cell_length_c   23.70554388
_cell_angle_alpha   90.00000000
_cell_angle_beta   90.03061508
_cell_angle_gamma   90.00000000
_symmetry_Int_Tables_number   1
_chemical_formula_structural   La2Ti2CrO9
_chemical_formula_sum   'La8 Ti8 Cr4 O36'
_cell_volume   706.14985232
_cell_formula_units_Z   4
loop_
 _symmetry_equiv_pos_site_id
 _symmetry_equiv_pos_as_xyz
  1  'x, y, z'
loop_
 _atom_site_type_symbol
 _atom_site_label
 _atom_site_symmetry_multiplicity
 _atom_site_fract_x
 _atom_site_fract_y
 _atom_site_fract_z
 _atom_site_occupancy
  La  La0  1  0.007377  0.009786  0.416601  1
  La  La1  1  0.492623  0.509786  0.750066  1
  La  La2  1  0.499467  0.497001  0.247241  1
  La  La3  1  0.499885  0.491009  0.581895  1
  La  La4  1  0.495731  0.495662  0.919465  1
  La  La5  1  0.004269  0.995662  0.247201  1
  La  La6  1  0.000533  0.997001  0.919426  1
  La  La7  1  0.000115  0.991009  0.584772  1
  Ti  Ti8  1  0.000927  0.498144  0.007066  1
  Ti  Ti9  1  0.001297  0.497714  0.159350  1
  Ti  Ti10  1  0.999287  0.501156  0.495663  1
  Ti  Ti11  1  0.999400  0.501055  0.830522  1
  Ti  Ti12  1  0.498703  0.997714  0.007317  1
  Ti  Ti13  1  0.500713  0.001156  0.671004  1
  Ti  Ti14  1  0.500600  0.001055  0.336145  1
  Ti  Ti15  1  0.499073  0.998144  0.159600  1
  Cr  Cr16  1  0.999631  0.502537  0.336116  1
  Cr  Cr17  1  0.000403  0.500253  0.668239  1
  Cr  Cr18  1  0.499597  0.000253  0.498428  1
  Cr  Cr19  1  0.500369  0.002537  0.830550  1
  O  O20  1  0.975553  0.498232  0.083356  1
  O  O21  1  0.958579  0.496856  0.418635  1
  O  O22  1  0.954137  0.495417  0.745111  1
  O  O23  1  0.248815  0.750134  0.993373  1
  O  O24  1  0.250542  0.748884  0.173451  1
  O  O25  1  0.218110  0.775903  0.341899  1
  O  O26  1  0.216671  0.778351  0.496462  1
  O  O27  1  0.245203  0.755681  0.669501  1
  O  O28  1  0.248447  0.756231  0.823277  1
  O  O29  1  0.249458  0.248884  0.993216  1
  O  O30  1  0.251185  0.250134  0.173294  1
  O  O31  1  0.251553  0.256231  0.343390  1
  O  O32  1  0.254797  0.255681  0.497165  1
  O  O33  1  0.283329  0.278351  0.670204  1
  O  O34  1  0.281891  0.275903  0.824767  1
  O  O35  1  0.524447  0.998232  0.083311  1
  O  O36  1  0.545863  0.995417  0.421556  1
  O  O37  1  0.541421  0.996856  0.748031  1
  O  O38  1  0.462990  0.002323  0.256179  1
  O  O39  1  0.457996  0.002079  0.909634  1
  O  O40  1  0.451654  0.002916  0.581739  1
  O  O41  1  0.749367  0.747646  0.181587  1
  O  O42  1  0.727443  0.729212  0.838272  1
  O  O43  1  0.736210  0.744249  0.513741  1
  O  O44  1  0.733109  0.732768  0.654264  1
  O  O45  1  0.739797  0.737348  0.327107  1
  O  O46  1  0.748802  0.748577  0.985053  1
  O  O47  1  0.751198  0.248577  0.181614  1
  O  O48  1  0.760203  0.237348  0.839559  1
  O  O49  1  0.766891  0.232768  0.512403  1
  O  O50  1  0.772557  0.229212  0.328395  1
  O  O51  1  0.763790  0.244249  0.652926  1
  O  O52  1  0.750633  0.247646  0.985080  1
  O  O53  1  0.042004  0.502079  0.257033  1
  O  O54  1  0.048346  0.502916  0.584928  1
  O  O55  1  0.037010  0.502323  0.910487  1
