# generated using pymatgen
data_Mn2F7
_symmetry_space_group_name_H-M   'P 1'
_cell_length_a   5.62127082
_cell_length_b   5.62127173
_cell_length_c   10.19416640
_cell_angle_alpha   82.10311435
_cell_angle_beta   97.89688605
_cell_angle_gamma   55.39316783
_symmetry_Int_Tables_number   1
_chemical_formula_structural   Mn2F7
_chemical_formula_sum   'Mn4 F14'
_cell_volume   253.28082477
_cell_formula_units_Z   2
loop_
 _symmetry_equiv_pos_site_id
 _symmetry_equiv_pos_as_xyz
  1  'x, y, z'
loop_
 _atom_site_type_symbol
 _atom_site_label
 _atom_site_symmetry_multiplicity
 _atom_site_fract_x
 _atom_site_fract_y
 _atom_site_fract_z
 _atom_site_occupancy
  Mn  Mn0  1  0.245308  0.323852  0.425649  1
  Mn  Mn1  1  0.323852  0.245308  0.074351  1
  Mn  Mn2  1  0.676148  0.754692  0.925649  1
  Mn  Mn3  1  0.754692  0.676148  0.574351  1
  F  F4  1  0.177728  0.451727  0.602023  1
  F  F5  1  0.231618  0.231618  0.250000  1
  F  F6  1  0.045860  0.681956  0.017442  1
  F  F7  1  0.451727  0.177728  0.897977  1
  F  F8  1  0.369985  0.759295  0.854638  1
  F  F9  1  0.240705  0.630015  0.354638  1
  F  F10  1  0.318044  0.954140  0.517442  1
  F  F11  1  0.681956  0.045860  0.482558  1
  F  F12  1  0.759295  0.369985  0.645362  1
  F  F13  1  0.630015  0.240705  0.145362  1
  F  F14  1  0.548273  0.822272  0.102023  1
  F  F15  1  0.954140  0.318044  0.982558  1
  F  F16  1  0.768382  0.768382  0.750000  1
  F  F17  1  0.822272  0.548273  0.397977  1
