# generated using pymatgen
data_LiP(WO4)2
_symmetry_space_group_name_H-M   'P 1'
_cell_length_a   6.80269645
_cell_length_b   5.40501890
_cell_length_c   17.98199604
_cell_angle_alpha   90.00000000
_cell_angle_beta   90.61029349
_cell_angle_gamma   90.00000000
_symmetry_Int_Tables_number   1
_chemical_formula_structural   LiP(WO4)2
_chemical_formula_sum   'Li4 P4 W8 O32'
_cell_volume   661.13716274
_cell_formula_units_Z   4
loop_
 _symmetry_equiv_pos_site_id
 _symmetry_equiv_pos_as_xyz
  1  'x, y, z'
loop_
 _atom_site_type_symbol
 _atom_site_label
 _atom_site_symmetry_multiplicity
 _atom_site_fract_x
 _atom_site_fract_y
 _atom_site_fract_z
 _atom_site_occupancy
  Li  Li0  1  0.241910  0.206828  0.797196  1
  Li  Li1  1  0.247912  0.217957  0.294523  1
  Li  Li2  1  0.752088  0.717957  0.705477  1
  Li  Li3  1  0.758090  0.706828  0.202804  1
  P  P4  1  0.196165  0.778361  0.692506  1
  P  P5  1  0.301095  0.778596  0.189893  1
  P  P6  1  0.698905  0.278596  0.810107  1
  P  P7  1  0.803835  0.278361  0.307494  1
  W  W8  1  0.995477  0.763615  0.875216  1
  W  W9  1  0.160439  0.268803  0.453484  1
  W  W10  1  0.339952  0.270880  0.953429  1
  W  W11  1  0.502974  0.773706  0.372595  1
  W  W12  1  0.497026  0.273706  0.627405  1
  W  W13  1  0.660048  0.770880  0.046571  1
  W  W14  1  0.839561  0.768803  0.546516  1
  W  W15  1  0.004523  0.263615  0.124784  1
  O  O16  1  0.003553  0.763193  0.646822  1
  O  O17  1  0.004514  0.026072  0.495775  1
  O  O18  1  0.135350  0.809658  0.774754  1
  O  O19  1  0.151517  0.470465  0.888960  1
  O  O20  1  0.149622  0.592295  0.161455  1
  O  O21  1  0.162649  0.264487  0.042678  1
  O  O22  1  0.203420  0.986293  0.912115  1
  O  O23  1  0.215146  0.048295  0.189356  1
  O  O24  1  0.306594  0.020490  0.676996  1
  O  O25  1  0.323505  0.516582  0.407612  1
  O  O26  1  0.338462  0.273245  0.544436  1
  O  O27  1  0.322916  0.545076  0.684642  1
  O  O28  1  0.320601  0.032664  0.392740  1
  O  O29  1  0.351648  0.718439  0.271838  1
  O  O30  1  0.475541  0.543198  0.990264  1
  O  O31  1  0.496980  0.765603  0.146772  1
  O  O32  1  0.503020  0.265603  0.853228  1
  O  O33  1  0.524459  0.043198  0.009736  1
  O  O34  1  0.648352  0.218439  0.728162  1
  O  O35  1  0.679399  0.532664  0.607260  1
  O  O36  1  0.677084  0.045076  0.315358  1
  O  O37  1  0.661538  0.773245  0.455564  1
  O  O38  1  0.676495  0.016582  0.592388  1
  O  O39  1  0.693406  0.520490  0.323004  1
  O  O40  1  0.784854  0.548295  0.810644  1
  O  O41  1  0.796580  0.486293  0.087885  1
  O  O42  1  0.837351  0.764487  0.957322  1
  O  O43  1  0.850378  0.092295  0.838545  1
  O  O44  1  0.848483  0.970465  0.111040  1
  O  O45  1  0.864650  0.309658  0.225246  1
  O  O46  1  0.995486  0.526072  0.504225  1
  O  O47  1  0.996447  0.263193  0.353178  1
