# generated using pymatgen
data_LiFeF5
_symmetry_space_group_name_H-M   'P 1'
_cell_length_a   9.17738808
_cell_length_b   5.38347262
_cell_length_c   7.98508734
_cell_angle_alpha   90.00000000
_cell_angle_beta   90.00000000
_cell_angle_gamma   90.00000000
_symmetry_Int_Tables_number   1
_chemical_formula_structural   LiFeF5
_chemical_formula_sum   'Li4 Fe4 F20'
_cell_volume   394.51296149
_cell_formula_units_Z   4
loop_
 _symmetry_equiv_pos_site_id
 _symmetry_equiv_pos_as_xyz
  1  'x, y, z'
loop_
 _atom_site_type_symbol
 _atom_site_label
 _atom_site_symmetry_multiplicity
 _atom_site_fract_x
 _atom_site_fract_y
 _atom_site_fract_z
 _atom_site_occupancy
  Li  Li0  1  0.019012  0.750000  0.699492  1
  Li  Li1  1  0.480988  0.250000  0.199492  1
  Li  Li2  1  0.519012  0.750000  0.800508  1
  Li  Li3  1  0.980988  0.250000  0.300508  1
  Fe  Fe4  1  0.223534  0.750000  0.097006  1
  Fe  Fe5  1  0.276466  0.250000  0.597006  1
  Fe  Fe6  1  0.723534  0.750000  0.402994  1
  Fe  Fe7  1  0.776466  0.250000  0.902994  1
  F  F8  1  0.106113  0.982474  0.182519  1
  F  F9  1  0.106113  0.517526  0.182519  1
  F  F10  1  0.135087  0.019572  0.570963  1
  F  F11  1  0.135087  0.480428  0.570963  1
  F  F12  1  0.161763  0.750000  0.877294  1
  F  F13  1  0.338237  0.250000  0.377294  1
  F  F14  1  0.364913  0.519572  0.070963  1
  F  F15  1  0.364913  0.980428  0.070963  1
  F  F16  1  0.393887  0.017526  0.682519  1
  F  F17  1  0.393887  0.482474  0.682519  1
  F  F18  1  0.606113  0.517526  0.317481  1
  F  F19  1  0.606113  0.982474  0.317481  1
  F  F20  1  0.635087  0.019572  0.929037  1
  F  F21  1  0.635087  0.480428  0.929037  1
  F  F22  1  0.661763  0.750000  0.622706  1
  F  F23  1  0.838237  0.250000  0.122706  1
  F  F24  1  0.864913  0.519572  0.429037  1
  F  F25  1  0.864913  0.980428  0.429037  1
  F  F26  1  0.893887  0.017526  0.817481  1
  F  F27  1  0.893887  0.482474  0.817481  1
