# generated using pymatgen
data_Na3LiCuPCO7
_symmetry_space_group_name_H-M   'P 1'
_cell_length_a   5.15926443
_cell_length_b   6.43569339
_cell_length_c   9.87895257
_cell_angle_alpha   89.99991732
_cell_angle_beta   90.44226899
_cell_angle_gamma   90.00019695
_symmetry_Int_Tables_number   1
_chemical_formula_structural   Na3LiCuPCO7
_chemical_formula_sum   'Na6 Li2 Cu2 P2 C2 O14'
_cell_volume   328.00547613
_cell_formula_units_Z   2
loop_
 _symmetry_equiv_pos_site_id
 _symmetry_equiv_pos_as_xyz
  1  'x, y, z'
loop_
 _atom_site_type_symbol
 _atom_site_label
 _atom_site_symmetry_multiplicity
 _atom_site_fract_x
 _atom_site_fract_y
 _atom_site_fract_z
 _atom_site_occupancy
  Na  Na0  1  0.771250  0.250007  0.911244  1
  Na  Na1  1  0.243499  0.983334  0.759976  1
  Na  Na2  1  0.243512  0.516630  0.759892  1
  Na  Na3  1  0.756499  0.483336  0.240026  1
  Na  Na4  1  0.756482  0.016624  0.240108  1
  Na  Na5  1  0.228750  0.750017  0.088747  1
  Li  Li6  1  0.000381  0.000239  0.500087  1
  Li  Li7  1  0.999675  0.500213  0.499934  1
  Cu  Cu8  1  0.720015  0.750054  0.665336  1
  Cu  Cu9  1  0.279962  0.250056  0.334643  1
  P  P10  1  0.656387  0.249977  0.592175  1
  P  P11  1  0.343620  0.749980  0.407821  1
  C  C12  1  0.732126  0.750001  0.953650  1
  C  C13  1  0.267883  0.250000  0.046357  1
  O  O14  1  0.266448  0.250012  0.913807  1
  O  O15  1  0.510479  0.750002  0.889173  1
  O  O16  1  0.950554  0.749986  0.889152  1
  O  O17  1  0.770784  0.055987  0.669485  1
  O  O18  1  0.770575  0.444062  0.669465  1
  O  O19  1  0.221734  0.749999  0.553184  1
  O  O20  1  0.357851  0.249866  0.592454  1
  O  O21  1  0.642156  0.749868  0.407543  1
  O  O22  1  0.778283  0.249998  0.446819  1
  O  O23  1  0.229435  0.944064  0.330537  1
  O  O24  1  0.229225  0.555989  0.330517  1
  O  O25  1  0.049461  0.249984  0.110827  1
  O  O26  1  0.489508  0.250002  0.110807  1
  O  O27  1  0.733557  0.750013  0.086165  1
