# generated using pymatgen
data_Li2Mn3VO8
_symmetry_space_group_name_H-M   'P 1'
_cell_length_a   5.83848063
_cell_length_b   6.01965813
_cell_length_c   9.61435364
_cell_angle_alpha   89.91328823
_cell_angle_beta   90.04470812
_cell_angle_gamma   121.03194114
_symmetry_Int_Tables_number   1
_chemical_formula_structural   Li2Mn3VO8
_chemical_formula_sum   'Li4 Mn6 V2 O16'
_cell_volume   289.54181717
_cell_formula_units_Z   2
loop_
 _symmetry_equiv_pos_site_id
 _symmetry_equiv_pos_as_xyz
  1  'x, y, z'
loop_
 _atom_site_type_symbol
 _atom_site_label
 _atom_site_symmetry_multiplicity
 _atom_site_fract_x
 _atom_site_fract_y
 _atom_site_fract_z
 _atom_site_occupancy
  Li  Li0  1  0.340094  0.668871  0.895994  1
  Li  Li1  1  0.010771  0.006621  0.993786  1
  Li  Li2  1  0.989229  0.995850  0.493786  1
  Li  Li3  1  0.659906  0.328777  0.395994  1
  Mn  Mn4  1  0.166213  0.827589  0.213530  1
  Mn  Mn5  1  0.166329  0.338953  0.214193  1
  Mn  Mn6  1  0.661780  0.830709  0.214516  1
  Mn  Mn7  1  0.338220  0.168929  0.714516  1
  Mn  Mn8  1  0.833787  0.661376  0.713530  1
  Mn  Mn9  1  0.833671  0.172623  0.714193  1
  V  V10  1  0.326703  0.663683  0.487774  1
  V  V11  1  0.673298  0.336980  0.987774  1
  O  O12  1  0.161783  0.843595  0.600119  1
  O  O13  1  0.037938  0.517795  0.365093  1
  O  O14  1  0.333394  0.667292  0.110292  1
  O  O15  1  0.005771  0.002026  0.306676  1
  O  O16  1  0.994229  0.996255  0.806676  1
  O  O17  1  0.162194  0.319339  0.601261  1
  O  O18  1  0.485670  0.959662  0.334359  1
  O  O19  1  0.486220  0.525209  0.334331  1
  O  O20  1  0.359746  0.181110  0.081999  1
  O  O21  1  0.640254  0.821364  0.581999  1
  O  O22  1  0.514330  0.473991  0.834359  1
  O  O23  1  0.513780  0.038989  0.834331  1
  O  O24  1  0.666606  0.333898  0.610292  1
  O  O25  1  0.838217  0.681812  0.100119  1
  O  O26  1  0.962062  0.479858  0.865093  1
  O  O27  1  0.837806  0.157146  0.101261  1
