# generated using pymatgen
data_Ba8LiNb7O24
_symmetry_space_group_name_H-M   'P 1'
_cell_length_a   5.92242296
_cell_length_b   5.92235283
_cell_length_c   19.22246625
_cell_angle_alpha   89.99367521
_cell_angle_beta   90.00137324
_cell_angle_gamma   119.99746400
_symmetry_Int_Tables_number   1
_chemical_formula_structural   Ba8LiNb7O24
_chemical_formula_sum   'Ba8 Li1 Nb7 O24'
_cell_volume   583.90814147
_cell_formula_units_Z   1
loop_
 _symmetry_equiv_pos_site_id
 _symmetry_equiv_pos_as_xyz
  1  'x, y, z'
loop_
 _atom_site_type_symbol
 _atom_site_label
 _atom_site_symmetry_multiplicity
 _atom_site_fract_x
 _atom_site_fract_y
 _atom_site_fract_z
 _atom_site_occupancy
  Ba  Ba0  1  0.333349  0.666662  0.132153  1
  Ba  Ba1  1  0.333332  0.666684  0.752082  1
  Ba  Ba2  1  0.999986  0.999979  0.994208  1
  Ba  Ba3  1  0.333339  0.666664  0.365220  1
  Ba  Ba4  1  0.000001  0.000014  0.502177  1
  Ba  Ba5  1  0.666690  0.333367  0.249666  1
  Ba  Ba6  1  0.666666  0.333335  0.856797  1
  Ba  Ba7  1  0.666630  0.333433  0.634799  1
  Li  Li8  1  0.999992  0.000008  0.831427  1
  Nb  Nb9  1  0.333336  0.666702  0.560443  1
  Nb  Nb10  1  0.000022  0.000004  0.182460  1
  Nb  Nb11  1  0.000018  0.000014  0.317932  1
  Nb  Nb12  1  0.000000  0.000051  0.690021  1
  Nb  Nb13  1  0.333304  0.666626  0.934042  1
  Nb  Nb14  1  0.666651  0.333315  0.059901  1
  Nb  Nb15  1  0.666677  0.333344  0.439479  1
  O  O16  1  0.161803  0.838287  0.249809  1
  O  O17  1  0.998305  0.499137  0.003762  1
  O  O18  1  0.001042  0.500533  0.499152  1
  O  O19  1  0.168511  0.831510  0.620684  1
  O  O20  1  0.173677  0.826306  0.881140  1
  O  O21  1  0.168484  0.336981  0.620685  1
  O  O22  1  0.173700  0.347384  0.881141  1
  O  O23  1  0.161764  0.323507  0.249799  1
  O  O24  1  0.317139  0.158596  0.743498  1
  O  O25  1  0.663020  0.831518  0.620682  1
  O  O26  1  0.652612  0.826296  0.881147  1
  O  O27  1  0.500837  0.499129  0.003762  1
  O  O28  1  0.499490  0.500520  0.499154  1
  O  O29  1  0.338943  0.169475  0.124287  1
  O  O30  1  0.337755  0.168871  0.376737  1
  O  O31  1  0.676529  0.838209  0.249806  1
  O  O32  1  0.831154  0.662265  0.376733  1
  O  O33  1  0.500874  0.001734  0.003766  1
  O  O34  1  0.499476  0.998956  0.499147  1
  O  O35  1  0.830563  0.661084  0.124284  1
  O  O36  1  0.841455  0.682853  0.743499  1
  O  O37  1  0.830552  0.169486  0.124294  1
  O  O38  1  0.831137  0.168889  0.376730  1
  O  O39  1  0.841389  0.158570  0.743495  1
