# generated using pymatgen
data_LiMn3F10
_symmetry_space_group_name_H-M   'P 1'
_cell_length_a   6.16727108
_cell_length_b   9.63057824
_cell_length_c   8.07584330
_cell_angle_alpha   111.28717886
_cell_angle_beta   91.60914414
_cell_angle_gamma   71.25968346
_symmetry_Int_Tables_number   1
_chemical_formula_structural   LiMn3F10
_chemical_formula_sum   'Li2 Mn6 F20'
_cell_volume   421.10237712
_cell_formula_units_Z   2
loop_
 _symmetry_equiv_pos_site_id
 _symmetry_equiv_pos_as_xyz
  1  'x, y, z'
loop_
 _atom_site_type_symbol
 _atom_site_label
 _atom_site_symmetry_multiplicity
 _atom_site_fract_x
 _atom_site_fract_y
 _atom_site_fract_z
 _atom_site_occupancy
  Li  Li0  1  0.690559  0.618425  0.479034  1
  Li  Li1  1  0.309441  0.381575  0.520966  1
  Mn  Mn2  1  0.916716  0.164094  0.489395  1
  Mn  Mn3  1  0.815446  0.370144  0.013292  1
  Mn  Mn4  1  0.746405  0.000655  0.002416  1
  Mn  Mn5  1  0.184554  0.629856  0.986708  1
  Mn  Mn6  1  0.083284  0.835906  0.510605  1
  Mn  Mn7  1  0.253595  0.999345  0.997584  1
  F  F8  1  0.868364  0.787458  0.974583  1
  F  F9  1  0.929028  0.705391  0.527269  1
  F  F10  1  0.956243  0.046572  0.183160  1
  F  F11  1  0.863323  0.269741  0.765253  1
  F  F12  1  0.543224  0.954863  0.826351  1
  F  F13  1  0.773835  0.459087  0.257501  1
  F  F14  1  0.368893  0.704135  0.528275  1
  F  F15  1  0.657101  0.211411  0.020987  1
  F  F16  1  0.802036  0.999038  0.499175  1
  F  F17  1  0.500000  0.500000  0.000000  1
  F  F18  1  0.342899  0.788589  0.979013  1
  F  F19  1  0.631107  0.295865  0.471725  1
  F  F20  1  0.226165  0.540913  0.742499  1
  F  F21  1  0.456776  0.045137  0.173649  1
  F  F22  1  0.136678  0.730259  0.234747  1
  F  F23  1  0.043757  0.953428  0.816840  1
  F  F24  1  0.070972  0.294609  0.472731  1
  F  F25  1  0.000000  0.500000  0.000000  1
  F  F26  1  0.197964  0.000962  0.500825  1
  F  F27  1  0.131636  0.212542  0.025417  1
