# generated using pymatgen
data_CuHCO4
_symmetry_space_group_name_H-M   'P 1'
_cell_length_a   10.75122059
_cell_length_b   10.75122040
_cell_length_c   6.08899422
_cell_angle_alpha   90.00000000
_cell_angle_beta   90.00000000
_cell_angle_gamma   120.00000145
_symmetry_Int_Tables_number   1
_chemical_formula_structural   CuHCO4
_chemical_formula_sum   'Cu6 H6 C6 O24'
_cell_volume   609.52528288
_cell_formula_units_Z   6
loop_
 _symmetry_equiv_pos_site_id
 _symmetry_equiv_pos_as_xyz
  1  'x, y, z'
loop_
 _atom_site_type_symbol
 _atom_site_label
 _atom_site_symmetry_multiplicity
 _atom_site_fract_x
 _atom_site_fract_y
 _atom_site_fract_z
 _atom_site_occupancy
  Cu  Cu0  1  0.000000  0.500000  0.500000  1
  Cu  Cu1  1  0.000000  0.500000  0.000000  1
  Cu  Cu2  1  0.500000  0.500000  0.500000  1
  Cu  Cu3  1  0.500000  0.500000  0.000000  1
  Cu  Cu4  1  0.500000  0.000000  0.500000  1
  Cu  Cu5  1  0.500000  0.000000  0.000000  1
  H  H6  1  0.187004  0.593629  0.750000  1
  H  H7  1  0.406626  0.812996  0.750000  1
  H  H8  1  0.406371  0.593374  0.750000  1
  H  H9  1  0.593629  0.406626  0.250000  1
  H  H10  1  0.593374  0.187004  0.250000  1
  H  H11  1  0.812996  0.406371  0.250000  1
  C  C12  1  0.192518  0.751033  0.250000  1
  C  C13  1  0.248967  0.441485  0.250000  1
  C  C14  1  0.558515  0.807482  0.250000  1
  C  C15  1  0.441485  0.192518  0.750000  1
  C  C16  1  0.751033  0.558515  0.750000  1
  C  C17  1  0.807482  0.248967  0.750000  1
  O  O18  1  0.147010  0.687727  0.440772  1
  O  O19  1  0.147010  0.687727  0.059228  1
  O  O20  1  0.289610  0.880996  0.250000  1
  O  O21  1  0.101388  0.497736  0.750000  1
  O  O22  1  0.119004  0.408613  0.250000  1
  O  O23  1  0.396347  0.898612  0.750000  1
  O  O24  1  0.312273  0.459282  0.440772  1
  O  O25  1  0.312273  0.459282  0.059228  1
  O  O26  1  0.540718  0.852990  0.059228  1
  O  O27  1  0.540718  0.852990  0.440772  1
  O  O28  1  0.502264  0.603653  0.750000  1
  O  O29  1  0.591387  0.710390  0.250000  1
  O  O30  1  0.408613  0.289610  0.750000  1
  O  O31  1  0.497736  0.396347  0.250000  1
  O  O32  1  0.459282  0.147010  0.559228  1
  O  O33  1  0.459282  0.147010  0.940772  1
  O  O34  1  0.687727  0.540718  0.940772  1
  O  O35  1  0.687727  0.540718  0.559228  1
  O  O36  1  0.603653  0.101388  0.250000  1
  O  O37  1  0.880996  0.591387  0.750000  1
  O  O38  1  0.898612  0.502264  0.250000  1
  O  O39  1  0.710390  0.119004  0.750000  1
  O  O40  1  0.852990  0.312273  0.940772  1
  O  O41  1  0.852990  0.312273  0.559228  1
