# generated using pymatgen
data_Li4NiSn3(PO4)4
_symmetry_space_group_name_H-M   'P 1'
_cell_length_a   4.84534959
_cell_length_b   10.98249555
_cell_length_c   6.74203580
_cell_angle_alpha   90.00000000
_cell_angle_beta   90.00000000
_cell_angle_gamma   91.10517513
_symmetry_Int_Tables_number   1
_chemical_formula_structural   Li4NiSn3(PO4)4
_chemical_formula_sum   'Li4 Ni1 Sn3 P4 O16'
_cell_volume   358.70415677
_cell_formula_units_Z   1
loop_
 _symmetry_equiv_pos_site_id
 _symmetry_equiv_pos_as_xyz
  1  'x, y, z'
loop_
 _atom_site_type_symbol
 _atom_site_label
 _atom_site_symmetry_multiplicity
 _atom_site_fract_x
 _atom_site_fract_y
 _atom_site_fract_z
 _atom_site_occupancy
  Li  Li0  1  0.983172  0.990733  0.012591  1
  Li  Li1  1  0.983172  0.990733  0.487409  1
  Li  Li2  1  0.499398  0.509927  0.500500  1
  Li  Li3  1  0.499398  0.509927  0.999500  1
  Ni  Ni4  1  0.022732  0.726721  0.750000  1
  Sn  Sn5  1  0.475006  0.219358  0.750000  1
  Sn  Sn6  1  0.534096  0.783107  0.250000  1
  Sn  Sn7  1  0.952904  0.295198  0.250000  1
  P  P8  1  0.087297  0.587284  0.250000  1
  P  P9  1  0.386933  0.076241  0.250000  1
  P  P10  1  0.618894  0.896123  0.750000  1
  P  P11  1  0.914410  0.439982  0.750000  1
  O  O12  1  0.235883  0.459799  0.250000  1
  O  O13  1  0.200859  0.656901  0.062486  1
  O  O14  1  0.200859  0.656901  0.437514  1
  O  O15  1  0.231281  0.438712  0.750000  1
  O  O16  1  0.302493  0.881323  0.750000  1
  O  O17  1  0.277238  0.147033  0.064530  1
  O  O18  1  0.277238  0.147033  0.435470  1
  O  O19  1  0.230794  0.949636  0.250000  1
  O  O20  1  0.723927  0.031724  0.750000  1
  O  O21  1  0.763400  0.832947  0.569700  1
  O  O22  1  0.763400  0.832947  0.930300  1
  O  O23  1  0.700703  0.059434  0.250000  1
  O  O24  1  0.771607  0.569550  0.250000  1
  O  O25  1  0.784905  0.370109  0.567037  1
  O  O26  1  0.784905  0.370109  0.932963  1
  O  O27  1  0.793092  0.570505  0.750000  1
