# generated using pymatgen
data_Li2Mn(PO4)2
_symmetry_space_group_name_H-M   'P 1'
_cell_length_a   4.64764838
_cell_length_b   5.03031792
_cell_length_c   13.70943498
_cell_angle_alpha   96.36270689
_cell_angle_beta   90.00000000
_cell_angle_gamma   62.48610691
_symmetry_Int_Tables_number   1
_chemical_formula_structural   Li2Mn(PO4)2
_chemical_formula_sum   'Li4 Mn2 P4 O16'
_cell_volume   282.03638138
_cell_formula_units_Z   2
loop_
 _symmetry_equiv_pos_site_id
 _symmetry_equiv_pos_as_xyz
  1  'x, y, z'
loop_
 _atom_site_type_symbol
 _atom_site_label
 _atom_site_symmetry_multiplicity
 _atom_site_fract_x
 _atom_site_fract_y
 _atom_site_fract_z
 _atom_site_occupancy
  Li  Li0  1  0.694155  0.668141  0.339504  1
  Li  Li1  1  0.637706  0.668141  0.839504  1
  Li  Li2  1  0.951666  0.010674  0.743426  1
  Li  Li3  1  0.037659  0.010674  0.243426  1
  Mn  Mn4  1  0.996211  0.994767  0.002417  1
  Mn  Mn5  1  0.009022  0.994767  0.502417  1
  P  P6  1  0.675736  0.676112  0.111355  1
  P  P7  1  0.648153  0.676112  0.611355  1
  P  P8  1  0.348696  0.318613  0.389483  1
  P  P9  1  0.332691  0.318613  0.889483  1
  O  O10  1  0.852145  0.881601  0.118659  1
  O  O11  1  0.774614  0.713291  0.710997  1
  O  O12  1  0.792393  0.770176  0.528107  1
  O  O13  1  0.953648  0.348142  0.081337  1
  O  O14  1  0.698210  0.348142  0.581337  1
  O  O15  1  0.437431  0.770176  0.028107  1
  O  O16  1  0.512095  0.713291  0.210997  1
  O  O17  1  0.266252  0.881601  0.618659  1
  O  O18  1  0.724901  0.090532  0.372742  1
  O  O19  1  0.513763  0.336810  0.800722  1
  O  O20  1  0.559625  0.212760  0.974434  1
  O  O21  1  0.334035  0.636403  0.420095  1
  O  O22  1  0.029562  0.636403  0.920095  1
  O  O23  1  0.227615  0.212760  0.474434  1
  O  O24  1  0.149428  0.336810  0.300722  1
  O  O25  1  0.184568  0.090532  0.872742  1
