# generated using pymatgen
data_Li3Nb3P8O29
_symmetry_space_group_name_H-M   'P 1'
_cell_length_a   10.03787288
_cell_length_b   10.03790003
_cell_length_c   14.08451853
_cell_angle_alpha   89.79949209
_cell_angle_beta   89.79928639
_cell_angle_gamma   60.00397985
_symmetry_Int_Tables_number   1
_chemical_formula_structural   Li3Nb3P8O29
_chemical_formula_sum   'Li6 Nb6 P16 O58'
_cell_volume   1229.05427131
_cell_formula_units_Z   2
loop_
 _symmetry_equiv_pos_site_id
 _symmetry_equiv_pos_as_xyz
  1  'x, y, z'
loop_
 _atom_site_type_symbol
 _atom_site_label
 _atom_site_symmetry_multiplicity
 _atom_site_fract_x
 _atom_site_fract_y
 _atom_site_fract_z
 _atom_site_occupancy
  Li  Li0  1  0.999996  0.000005  0.499999  1
  Li  Li1  1  0.999998  0.000005  0.000001  1
  Li  Li2  1  0.094947  0.674101  0.055572  1
  Li  Li3  1  0.674099  0.094955  0.555571  1
  Li  Li4  1  0.325901  0.905054  0.444427  1
  Li  Li5  1  0.905056  0.325903  0.944429  1
  Nb  Nb6  1  0.001815  0.432796  0.741228  1
  Nb  Nb7  1  0.998193  0.567202  0.258774  1
  Nb  Nb8  1  0.432795  0.001809  0.241226  1
  Nb  Nb9  1  0.567206  0.998192  0.758774  1
  Nb  Nb10  1  0.432937  0.567072  0.750000  1
  Nb  Nb11  1  0.567069  0.432929  0.250000  1
  P  P12  1  0.083197  0.217934  0.344002  1
  P  P13  1  0.217939  0.083200  0.843995  1
  P  P14  1  0.080478  0.689747  0.843688  1
  P  P15  1  0.328406  0.340993  0.123917  1
  P  P16  1  0.341001  0.328404  0.623922  1
  P  P17  1  0.226410  0.696528  0.345526  1
  P  P18  1  0.303474  0.773587  0.154468  1
  P  P19  1  0.689742  0.080474  0.343685  1
  P  P20  1  0.310263  0.919523  0.656317  1
  P  P21  1  0.696534  0.226410  0.845529  1
  P  P22  1  0.773594  0.303480  0.654477  1
  P  P23  1  0.671602  0.659006  0.876086  1
  P  P24  1  0.659006  0.671598  0.376084  1
  P  P25  1  0.919529  0.310253  0.156311  1
  P  P26  1  0.782066  0.916802  0.155999  1
  P  P27  1  0.916806  0.782066  0.655999  1
  O  O28  1  0.011631  0.200820  0.244287  1
  O  O29  1  0.989615  0.231816  0.065217  1
  O  O30  1  0.085058  0.254969  0.837290  1
  O  O31  1  0.200822  0.011629  0.744283  1
  O  O32  1  0.231808  0.989618  0.565206  1
  O  O33  1  0.254969  0.085053  0.337294  1
  O  O34  1  0.083689  0.373608  0.332957  1
  O  O35  1  0.193561  0.331923  0.669704  1
  O  O36  1  0.082451  0.536227  0.827100  1
  O  O37  1  0.999209  0.797370  0.573738  1
  O  O38  1  0.988372  0.799180  0.755715  1
  O  O39  1  0.093538  0.658857  0.339280  1
  O  O40  1  0.331928  0.193555  0.169707  1
  O  O41  1  0.373614  0.083684  0.832956  1
  O  O42  1  0.182878  0.484127  0.169449  1
  O  O43  1  0.324965  0.345107  0.019153  1
  O  O44  1  0.345123  0.324955  0.519157  1
  O  O45  1  0.340671  0.469635  0.672296  1
  O  O46  1  0.536229  0.082444  0.327102  1
  O  O47  1  0.484133  0.182882  0.669455  1
  O  O48  1  0.248678  0.656342  0.831867  1
  O  O49  1  0.205966  0.794033  0.249997  1
  O  O50  1  0.204897  0.784696  0.073049  1
  O  O51  1  0.215308  0.795105  0.426947  1
  O  O52  1  0.379065  0.542578  0.334032  1
  O  O53  1  0.469636  0.340666  0.172294  1
  O  O54  1  0.343675  0.751322  0.668130  1
  O  O55  1  0.542580  0.379068  0.834035  1
  O  O56  1  0.658861  0.093537  0.839283  1
  O  O57  1  0.202634  0.000791  0.926262  1
  O  O58  1  0.797370  0.999197  0.073740  1
  O  O59  1  0.799180  0.988368  0.255717  1
  O  O60  1  0.341143  0.906464  0.160721  1
  O  O61  1  0.457428  0.620933  0.165961  1
  O  O62  1  0.656334  0.248676  0.331868  1
  O  O63  1  0.530369  0.659336  0.827710  1
  O  O64  1  0.620947  0.457422  0.665968  1
  O  O65  1  0.784698  0.204896  0.573044  1
  O  O66  1  0.795111  0.215307  0.926943  1
  O  O67  1  0.794037  0.205962  0.749996  1
  O  O68  1  0.751323  0.343664  0.168134  1
  O  O69  1  0.515874  0.817125  0.330551  1
  O  O70  1  0.463770  0.917562  0.672898  1
  O  O71  1  0.659332  0.530369  0.327703  1
  O  O72  1  0.675059  0.654878  0.980846  1
  O  O73  1  0.654887  0.675038  0.480844  1
  O  O74  1  0.817128  0.515875  0.830547  1
  O  O75  1  0.626386  0.916316  0.167044  1
  O  O76  1  0.668074  0.806447  0.830298  1
  O  O77  1  0.906473  0.341137  0.660721  1
  O  O78  1  0.000793  0.202634  0.426262  1
  O  O79  1  0.917557  0.463773  0.172901  1
  O  O80  1  0.806447  0.668073  0.330297  1
  O  O81  1  0.916321  0.626387  0.667041  1
  O  O82  1  0.745034  0.914942  0.662707  1
  O  O83  1  0.768192  0.010383  0.434792  1
  O  O84  1  0.914943  0.745026  0.162710  1
  O  O85  1  0.010383  0.768184  0.934790  1
