# generated using pymatgen
data_Li5VCr3O8
_symmetry_space_group_name_H-M   'P 1'
_cell_length_a   5.99920228
_cell_length_b   5.99923172
_cell_length_c   9.92874914
_cell_angle_alpha   89.99973544
_cell_angle_beta   90.00023780
_cell_angle_gamma   120.00023696
_symmetry_Int_Tables_number   1
_chemical_formula_structural   Li5VCr3O8
_chemical_formula_sum   'Li10 V2 Cr6 O16'
_cell_volume   309.46623799
_cell_formula_units_Z   2
loop_
 _symmetry_equiv_pos_site_id
 _symmetry_equiv_pos_as_xyz
  1  'x, y, z'
loop_
 _atom_site_type_symbol
 _atom_site_label
 _atom_site_symmetry_multiplicity
 _atom_site_fract_x
 _atom_site_fract_y
 _atom_site_fract_z
 _atom_site_occupancy
  Li  Li0  1  0.195297  0.804649  0.047295  1
  Li  Li1  1  0.609341  0.804670  0.047304  1
  Li  Li2  1  0.333307  0.666649  0.261394  1
  Li  Li3  1  0.195297  0.390636  0.047305  1
  Li  Li4  1  0.804659  0.609354  0.547305  1
  Li  Li5  1  -0.000005  -0.000001  0.471100  1
  Li  Li6  1  0.666660  0.333345  0.761403  1
  Li  Li7  1  0.390658  0.195343  0.547309  1
  Li  Li8  1  0.999992  0.000000  0.971093  1
  Li  Li9  1  0.804667  0.195320  0.547307  1
  V  V10  1  0.333317  0.666659  0.511465  1
  V  V11  1  0.666638  0.333323  0.011475  1
  Cr  Cr12  1  0.168171  0.831867  0.772838  1
  Cr  Cr13  1  0.663701  0.831855  0.772844  1
  Cr  Cr14  1  0.168160  0.336342  0.772853  1
  Cr  Cr15  1  0.831946  0.663933  0.272825  1
  Cr  Cr16  1  0.336081  0.168002  0.272796  1
  Cr  Cr17  1  0.831944  0.168064  0.272845  1
  O  O18  1  0.159765  0.840194  0.388258  1
  O  O19  1  0.492068  0.984166  0.655709  1
  O  O20  1  0.333323  0.666682  0.887839  1
  O  O21  1  0.680409  0.840190  0.388264  1
  O  O22  1  0.015834  0.507938  0.655710  1
  O  O23  1  0.492063  0.507929  0.655714  1
  O  O24  1  0.159770  0.319573  0.388258  1
  O  O25  1  0.840204  0.680420  0.888249  1
  O  O26  1  0.507900  0.492050  0.155729  1
  O  O27  1  0.666642  0.333315  0.387851  1
  O  O28  1  0.984108  0.492039  0.155728  1
  O  O29  1  0.999972  0.999976  0.160977  1
  O  O30  1  0.319574  0.159812  0.888250  1
  O  O31  1  0.999998  0.000030  0.660946  1
  O  O32  1  0.507900  0.015846  0.155728  1
  O  O33  1  0.840205  0.159809  0.888256  1
