# generated using pymatgen
data_V4(OF3)3
_symmetry_space_group_name_H-M   'P 1'
_cell_length_a   5.20746599
_cell_length_b   5.42693219
_cell_length_c   9.18582635
_cell_angle_alpha   73.42083968
_cell_angle_beta   90.33341159
_cell_angle_gamma   61.09868432
_symmetry_Int_Tables_number   1
_chemical_formula_structural   V4(OF3)3
_chemical_formula_sum   'V4 O3 F9'
_cell_volume   214.59726811
_cell_formula_units_Z   1
loop_
 _symmetry_equiv_pos_site_id
 _symmetry_equiv_pos_as_xyz
  1  'x, y, z'
loop_
 _atom_site_type_symbol
 _atom_site_label
 _atom_site_symmetry_multiplicity
 _atom_site_fract_x
 _atom_site_fract_y
 _atom_site_fract_z
 _atom_site_occupancy
  V  V0  1  0.751199  0.499607  0.250248  1
  V  V1  1  0.464957  0.013090  0.499014  1
  V  V2  1  0.263665  0.519000  0.744939  1
  V  V3  1  0.037143  0.984479  0.002882  1
  O  O4  1  0.396177  0.762185  0.080728  1
  O  O5  1  0.403269  0.741608  0.668800  1
  O  O6  1  0.104153  0.239899  0.418570  1
  F  F7  1  0.912710  0.760369  0.169581  1
  F  F8  1  0.907844  0.744275  0.582564  1
  F  F9  1  0.961383  0.261221  0.119566  1
  F  F10  1  0.537772  0.742226  0.377862  1
  F  F11  1  0.591249  0.238831  0.331694  1
  F  F12  1  0.585403  0.245227  0.921643  1
  F  F13  1  0.474721  0.239153  0.630961  1
  F  F14  1  0.027332  0.750114  0.874963  1
  F  F15  1  0.081023  0.258717  0.825984  1
