# generated using pymatgen
data_LiSb(PO3)4
_symmetry_space_group_name_H-M   'P 1'
_cell_length_a   7.64386452
_cell_length_b   7.64386452
_cell_length_c   10.30310551
_cell_angle_alpha   79.93826689
_cell_angle_beta   72.37126793
_cell_angle_gamma   110.87342351
_symmetry_Int_Tables_number   1
_chemical_formula_structural   LiSb(PO3)4
_chemical_formula_sum   'Li2 Sb2 P8 O24'
_cell_volume   508.35851238
_cell_formula_units_Z   2
loop_
 _symmetry_equiv_pos_site_id
 _symmetry_equiv_pos_as_xyz
  1  'x, y, z'
loop_
 _atom_site_type_symbol
 _atom_site_label
 _atom_site_symmetry_multiplicity
 _atom_site_fract_x
 _atom_site_fract_y
 _atom_site_fract_z
 _atom_site_occupancy
  Li  Li0  1  0.255349  0.005349  0.750000  1
  Li  Li1  1  0.744651  0.994651  0.250000  1
  Sb  Sb2  1  0.000000  0.500000  0.000000  1
  Sb  Sb3  1  0.000000  0.000000  0.500000  1
  P  P4  1  0.995209  0.680602  0.310692  1
  P  P5  1  0.267604  0.725538  0.478061  1
  P  P6  1  0.703599  0.745665  0.021939  1
  P  P7  1  0.508706  0.694099  0.810692  1
  P  P8  1  0.491294  0.305901  0.189308  1
  P  P9  1  0.296401  0.254335  0.978061  1
  P  P10  1  0.732396  0.274462  0.521939  1
  P  P11  1  0.004791  0.319398  0.689308  1
  O  O12  1  0.040906  0.648285  0.167361  1
  O  O13  1  0.139887  0.803978  0.574189  1
  O  O14  1  0.180127  0.684454  0.354491  1
  O  O15  1  0.491317  0.832578  0.409963  1
  O  O16  1  0.316157  0.718229  0.821288  1
  O  O17  1  0.206574  0.501637  0.567879  1
  O  O18  1  0.121833  0.285924  0.074189  1
  O  O19  1  0.742541  0.901280  0.090037  1
  O  O20  1  0.569516  0.774453  0.932121  1
  O  O21  1  0.684353  0.791733  0.667361  1
  O  O22  1  0.538945  0.534617  0.145509  1
  O  O23  1  0.039517  0.137447  0.678712  1
  O  O24  1  0.960483  0.862553  0.321288  1
  O  O25  1  0.461055  0.465383  0.854491  1
  O  O26  1  0.315647  0.208267  0.332639  1
  O  O27  1  0.430484  0.225547  0.067879  1
  O  O28  1  0.257459  0.098720  0.909963  1
  O  O29  1  0.878167  0.714076  0.925811  1
  O  O30  1  0.793426  0.498363  0.432121  1
  O  O31  1  0.683843  0.281771  0.178712  1
  O  O32  1  0.508683  0.167422  0.590037  1
  O  O33  1  0.819873  0.315546  0.645509  1
  O  O34  1  0.860113  0.196022  0.425811  1
  O  O35  1  0.959094  0.351715  0.832639  1
