# generated using pymatgen
data_LiV4O5F7
_symmetry_space_group_name_H-M   'P 1'
_cell_length_a   5.23879940
_cell_length_b   5.39053225
_cell_length_c   17.24308976
_cell_angle_alpha   95.58655333
_cell_angle_beta   81.28075764
_cell_angle_gamma   119.31706772
_symmetry_Int_Tables_number   1
_chemical_formula_structural   LiV4O5F7
_chemical_formula_sum   'Li2 V8 O10 F14'
_cell_volume   419.51949180
_cell_formula_units_Z   2
loop_
 _symmetry_equiv_pos_site_id
 _symmetry_equiv_pos_as_xyz
  1  'x, y, z'
loop_
 _atom_site_type_symbol
 _atom_site_label
 _atom_site_symmetry_multiplicity
 _atom_site_fract_x
 _atom_site_fract_y
 _atom_site_fract_z
 _atom_site_occupancy
  Li  Li0  1  0.630061  0.213952  0.925731  1
  Li  Li1  1  0.627017  0.540627  0.321891  1
  V  V2  1  0.780269  0.290157  0.745805  1
  V  V3  1  0.845218  0.129542  0.370020  1
  V  V4  1  0.522200  0.529048  0.497077  1
  V  V5  1  0.624840  0.344006  0.128313  1
  V  V6  1  0.327856  0.640351  0.871534  1
  V  V7  1  0.257161  0.745282  0.252201  1
  V  V8  1  0.978174  0.954519  0.004310  1
  V  V9  1  0.136430  0.910609  0.619965  1
  O  O10  1  0.963838  0.455653  0.315404  1
  O  O11  1  0.514871  0.050135  0.183166  1
  O  O12  1  0.763708  0.807845  0.439201  1
  O  O13  1  0.735060  0.683690  0.063725  1
  O  O14  1  0.233518  0.186336  0.561607  1
  O  O15  1  0.480491  0.925037  0.812924  1
  O  O16  1  0.223324  0.792659  0.957081  1
  O  O17  1  0.983279  0.410613  0.840774  1
  O  O18  1  0.508800  0.918170  0.336679  1
  O  O19  1  0.012121  0.567882  0.688914  1
  F  F20  1  0.974298  0.052906  0.712050  1
  F  F21  1  0.510187  0.075832  0.663758  1
  F  F22  1  0.723963  0.300606  0.464530  1
  F  F23  1  0.761354  0.844017  0.913991  1
  F  F24  1  0.781156  0.205234  0.029313  1
  F  F25  1  0.525144  0.445911  0.794044  1
  F  F26  1  0.733236  0.675456  0.589738  1
  F  F27  1  0.302708  0.312453  0.938696  1
  F  F28  1  0.280054  0.335935  0.406154  1
  F  F29  1  0.487589  0.527874  0.220718  1
  F  F30  1  0.239754  0.172358  0.085416  1
  F  F31  1  0.267422  0.696693  0.538702  1
  F  F32  1  0.019455  0.564506  0.161220  1
  F  F33  1  0.024323  0.958678  0.286817  1
