# generated using pymatgen
data_Li4Mn5(NiO6)2
_symmetry_space_group_name_H-M   'P 1'
_cell_length_a   5.18731884
_cell_length_b   8.91998187
_cell_length_c   9.83410020
_cell_angle_alpha   90.00000149
_cell_angle_beta   100.70250130
_cell_angle_gamma   90.00000452
_symmetry_Int_Tables_number   1
_chemical_formula_structural   Li4Mn5(NiO6)2
_chemical_formula_sum   'Li8 Mn10 Ni4 O24'
_cell_volume   447.11616944
_cell_formula_units_Z   2
loop_
 _symmetry_equiv_pos_site_id
 _symmetry_equiv_pos_as_xyz
  1  'x, y, z'
loop_
 _atom_site_type_symbol
 _atom_site_label
 _atom_site_symmetry_multiplicity
 _atom_site_fract_x
 _atom_site_fract_y
 _atom_site_fract_z
 _atom_site_occupancy
  Li  Li0  1  0.763182  0.082054  0.513466  1
  Li  Li1  1  0.242626  0.410994  0.992582  1
  Li  Li2  1  0.499492  0.424246  0.745435  1
  Li  Li3  1  0.754628  0.419682  0.508783  1
  Li  Li4  1  0.736818  0.582054  0.986534  1
  Li  Li5  1  0.000508  0.924246  0.754565  1
  Li  Li6  1  0.257374  0.910994  0.507418  1
  Li  Li7  1  0.745372  0.919682  0.991217  1
  Mn  Mn8  1  0.008105  0.072575  0.248415  1
  Mn  Mn9  1  0.494487  0.081521  0.750572  1
  Mn  Mn10  1  0.260047  0.263352  0.510443  1
  Mn  Mn11  1  0.734609  0.254055  0.990836  1
  Mn  Mn12  1  0.996366  0.415530  0.253354  1
  Mn  Mn13  1  0.005513  0.581521  0.749428  1
  Mn  Mn14  1  0.491895  0.572575  0.251585  1
  Mn  Mn15  1  0.239953  0.763352  0.989557  1
  Mn  Mn16  1  0.765391  0.754055  0.509164  1
  Mn  Mn17  1  0.503634  0.915530  0.246646  1
  Ni  Ni18  1  0.002729  0.253201  0.755808  1
  Ni  Ni19  1  0.495505  0.244743  0.244426  1
  Ni  Ni20  1  0.004495  0.744743  0.255574  1
  Ni  Ni21  1  0.497271  0.753201  0.744192  1
  O  O22  1  0.149918  0.100474  0.627183  1
  O  O23  1  0.363389  0.074210  0.355075  1
  O  O24  1  0.654890  0.074655  0.144901  1
  O  O25  1  0.397920  0.246182  0.868074  1
  O  O26  1  0.084902  0.257665  0.129203  1
  O  O27  1  0.834772  0.097625  0.868748  1
  O  O28  1  0.604938  0.241557  0.625198  1
  O  O29  1  0.114147  0.420776  0.640325  1
  O  O30  1  0.390548  0.398976  0.374686  1
  O  O31  1  0.910930  0.252174  0.377064  1
  O  O32  1  0.609951  0.406529  0.117453  1
  O  O33  1  0.136611  0.574210  0.144925  1
  O  O34  1  0.350082  0.600474  0.872817  1
  O  O35  1  0.882513  0.427237  0.866976  1
  O  O36  1  0.102080  0.746182  0.631926  1
  O  O37  1  0.665228  0.597625  0.631252  1
  O  O38  1  0.845110  0.574655  0.355099  1
  O  O39  1  0.415098  0.757665  0.370797  1
  O  O40  1  0.109452  0.898976  0.125314  1
  O  O41  1  0.895062  0.741557  0.874802  1
  O  O42  1  0.589070  0.752174  0.122936  1
  O  O43  1  0.385853  0.920776  0.859675  1
  O  O44  1  0.617487  0.927237  0.633024  1
  O  O45  1  0.890049  0.906529  0.382547  1
