# generated using pymatgen
data_Li4CrCo3(PO4)4
_symmetry_space_group_name_H-M   'P 1'
_cell_length_a   4.76521144
_cell_length_b   10.25517599
_cell_length_c   6.09027450
_cell_angle_alpha   90.00000000
_cell_angle_beta   90.00000000
_cell_angle_gamma   90.58948089
_symmetry_Int_Tables_number   1
_chemical_formula_structural   Li4CrCo3(PO4)4
_chemical_formula_sum   'Li4 Cr1 Co3 P4 O16'
_cell_volume   297.60428170
_cell_formula_units_Z   1
loop_
 _symmetry_equiv_pos_site_id
 _symmetry_equiv_pos_as_xyz
  1  'x, y, z'
loop_
 _atom_site_type_symbol
 _atom_site_label
 _atom_site_symmetry_multiplicity
 _atom_site_fract_x
 _atom_site_fract_y
 _atom_site_fract_z
 _atom_site_occupancy
  Li  Li0  1  0.007023  0.997742  0.997392  1
  Li  Li1  1  0.007023  0.997742  0.502608  1
  Li  Li2  1  0.498506  0.500760  0.503660  1
  Li  Li3  1  0.498506  0.500760  0.996340  1
  Cr  Cr4  1  0.957467  0.282819  0.250000  1
  Co  Co5  1  0.020774  0.720587  0.750000  1
  Co  Co6  1  0.482431  0.217982  0.750000  1
  Co  Co7  1  0.513170  0.778347  0.250000  1
  P  P8  1  0.080523  0.595501  0.250000  1
  P  P9  1  0.418632  0.094830  0.250000  1
  P  P10  1  0.588061  0.904307  0.750000  1
  P  P11  1  0.914680  0.406918  0.750000  1
  O  O12  1  0.196733  0.453718  0.250000  1
  O  O13  1  0.219462  0.665848  0.046833  1
  O  O14  1  0.219462  0.665848  0.453167  1
  O  O15  1  0.236093  0.403124  0.750000  1
  O  O16  1  0.265965  0.898907  0.750000  1
  O  O17  1  0.286951  0.162513  0.044049  1
  O  O18  1  0.286951  0.162513  0.455951  1
  O  O19  1  0.300836  0.952158  0.250000  1
  O  O20  1  0.708956  0.046128  0.750000  1
  O  O21  1  0.725025  0.834712  0.546844  1
  O  O22  1  0.725025  0.834712  0.953156  1
  O  O23  1  0.742431  0.102635  0.250000  1
  O  O24  1  0.758198  0.598467  0.250000  1
  O  O25  1  0.771983  0.336166  0.550718  1
  O  O26  1  0.771983  0.336166  0.949282  1
  O  O27  1  0.797157  0.548089  0.750000  1
