# generated using pymatgen
data_Cr3Ni(SO4)6
_symmetry_space_group_name_H-M   'P 1'
_cell_length_a   8.29455918
_cell_length_b   8.84288553
_cell_length_c   8.29455902
_cell_angle_alpha   117.96915426
_cell_angle_beta   59.99999933
_cell_angle_gamma   117.96915655
_symmetry_Int_Tables_number   1
_chemical_formula_structural   Cr3Ni(SO4)6
_chemical_formula_sum   'Cr3 Ni1 S6 O24'
_cell_volume   442.93091916
_cell_formula_units_Z   1
loop_
 _symmetry_equiv_pos_site_id
 _symmetry_equiv_pos_as_xyz
  1  'x, y, z'
loop_
 _atom_site_type_symbol
 _atom_site_label
 _atom_site_symmetry_multiplicity
 _atom_site_fract_x
 _atom_site_fract_y
 _atom_site_fract_z
 _atom_site_occupancy
  Cr  Cr0  1  0.355910  0.067729  0.355910  1
  Cr  Cr1  1  0.644272  0.932815  0.644272  1
  Cr  Cr2  1  0.849403  0.548207  0.849403  1
  Ni  Ni3  1  0.149967  0.449901  0.149967  1
  S  S4  1  0.040025  0.251769  0.463659  1
  S  S5  1  0.537667  0.748046  0.252603  1
  S  S6  1  0.252603  0.748046  0.957776  1
  S  S7  1  0.748084  0.251769  0.040025  1
  S  S8  1  0.463659  0.251769  0.748084  1
  S  S9  1  0.957776  0.748046  0.537667  1
  O  O10  1  0.299095  0.922097  0.107842  1
  O  O11  1  0.107842  0.922097  0.515160  1
  O  O12  1  0.010443  0.292062  0.330260  1
  O  O13  1  0.023924  0.395890  0.656923  1
  O  O14  1  0.349240  0.604655  0.285778  1
  O  O15  1  0.046797  0.705304  0.983842  1
  O  O16  1  0.515160  0.922097  0.299095  1
  O  O17  1  0.237862  0.234871  0.381389  1
  O  O18  1  0.674665  0.705304  0.046797  1
  O  O19  1  0.381913  0.768463  0.759417  1
  O  O20  1  0.627133  0.768463  0.381913  1
  O  O21  1  0.285778  0.604655  0.969637  1
  O  O22  1  0.715043  0.395890  0.023924  1
  O  O23  1  0.381389  0.234871  0.615621  1
  O  O24  1  0.615621  0.234871  0.237862  1
  O  O25  1  0.330260  0.292062  0.951360  1
  O  O26  1  0.759417  0.768463  0.627133  1
  O  O27  1  0.491417  0.077292  0.693299  1
  O  O28  1  0.951360  0.292062  0.010443  1
  O  O29  1  0.656923  0.395890  0.715043  1
  O  O30  1  0.969637  0.604655  0.349240  1
  O  O31  1  0.983842  0.705304  0.674665  1
  O  O32  1  0.892578  0.077292  0.491417  1
  O  O33  1  0.693299  0.077292  0.892578  1
