# generated using pymatgen
data_Li3FeF6
_symmetry_space_group_name_H-M   'P 1'
_cell_length_a   5.13398243
_cell_length_b   5.13395816
_cell_length_c   9.52792211
_cell_angle_alpha   89.99867467
_cell_angle_beta   89.99946839
_cell_angle_gamma   59.99976362
_symmetry_Int_Tables_number   1
_chemical_formula_structural   Li3FeF6
_chemical_formula_sum   'Li6 Fe2 F12'
_cell_volume   217.48759882
_cell_formula_units_Z   2
loop_
 _symmetry_equiv_pos_site_id
 _symmetry_equiv_pos_as_xyz
  1  'x, y, z'
loop_
 _atom_site_type_symbol
 _atom_site_label
 _atom_site_symmetry_multiplicity
 _atom_site_fract_x
 _atom_site_fract_y
 _atom_site_fract_z
 _atom_site_occupancy
  Li  Li0  1  0.333320  0.333347  0.962834  1
  Li  Li1  1  0.333315  0.333370  0.249998  1
  Li  Li2  1  0.666639  0.666678  0.749998  1
  Li  Li3  1  0.666655  0.666684  0.037168  1
  Li  Li4  1  0.666667  0.666673  0.462833  1
  Li  Li5  1  0.333332  0.333326  0.537167  1
  Fe  Fe6  1  -0.000001  0.000004  -0.000006  1
  Fe  Fe7  1  -0.000010  0.000014  0.500007  1
  F  F8  1  0.970681  0.691020  0.890346  1
  F  F9  1  0.029290  0.661717  0.390341  1
  F  F10  1  0.308989  0.661709  0.109653  1
  F  F11  1  0.338304  0.690994  0.609651  1
  F  F12  1  0.029292  0.309007  0.109656  1
  F  F13  1  0.970702  0.338292  0.609658  1
  F  F14  1  0.308994  0.029310  0.390345  1
  F  F15  1  0.338288  0.970716  0.890342  1
  F  F16  1  0.661679  0.309016  0.390357  1
  F  F17  1  0.690979  0.338326  0.890342  1
  F  F18  1  0.690999  0.970683  0.609653  1
  F  F19  1  0.661687  0.029314  0.109657  1
