# generated using pymatgen
data_LiMn3OF8
_symmetry_space_group_name_H-M   'P 1'
_cell_length_a   5.73532582
_cell_length_b   22.87370256
_cell_length_c   5.13787327
_cell_angle_alpha   86.74271902
_cell_angle_beta   90.00000000
_cell_angle_gamma   90.00000000
_symmetry_Int_Tables_number   1
_chemical_formula_structural   LiMn3OF8
_chemical_formula_sum   'Li4 Mn12 O4 F32'
_cell_volume   672.93910167
_cell_formula_units_Z   4
loop_
 _symmetry_equiv_pos_site_id
 _symmetry_equiv_pos_as_xyz
  1  'x, y, z'
loop_
 _atom_site_type_symbol
 _atom_site_label
 _atom_site_symmetry_multiplicity
 _atom_site_fract_x
 _atom_site_fract_y
 _atom_site_fract_z
 _atom_site_occupancy
  Li  Li0  1  0.234282  0.533668  0.566507  1
  Li  Li1  1  0.265718  0.033668  0.066507  1
  Li  Li2  1  0.737107  0.964502  0.917274  1
  Li  Li3  1  0.762893  0.464502  0.417274  1
  Mn  Mn4  1  0.104744  0.243222  0.526929  1
  Mn  Mn5  1  0.208966  0.618617  0.004623  1
  Mn  Mn6  1  0.221666  0.880486  0.987882  1
  Mn  Mn7  1  0.291034  0.118617  0.504623  1
  Mn  Mn8  1  0.278334  0.380486  0.487882  1
  Mn  Mn9  1  0.395256  0.743222  0.026929  1
  Mn  Mn10  1  0.510516  0.254183  0.123458  1
  Mn  Mn11  1  0.717738  0.883084  0.477048  1
  Mn  Mn12  1  0.721531  0.616443  0.496980  1
  Mn  Mn13  1  0.778469  0.116443  0.996980  1
  Mn  Mn14  1  0.782262  0.383084  0.977048  1
  Mn  Mn15  1  0.989484  0.754183  0.623458  1
  O  O16  1  0.204065  0.695323  0.837163  1
  O  O17  1  0.220400  0.803778  0.847480  1
  O  O18  1  0.295935  0.195323  0.337163  1
  O  O19  1  0.279600  0.303778  0.347480  1
  F  F20  1  0.963309  0.646774  0.279737  1
  F  F21  1  0.970945  0.851097  0.294354  1
  F  F22  1  0.031619  0.087957  0.209828  1
  F  F23  1  0.996993  0.415309  0.219383  1
  F  F24  1  0.236449  0.954042  0.130788  1
  F  F25  1  0.235412  0.547940  0.198252  1
  F  F26  1  0.237988  0.749362  0.344006  1
  F  F27  1  0.262012  0.249362  0.844006  1
  F  F28  1  0.264588  0.047940  0.698252  1
  F  F29  1  0.263551  0.454042  0.630788  1
  F  F30  1  0.468381  0.587957  0.709828  1
  F  F31  1  0.503007  0.915309  0.719383  1
  F  F32  1  0.536691  0.146774  0.779737  1
  F  F33  1  0.529055  0.351097  0.794354  1
  F  F34  1  0.465132  0.652780  0.197259  1
  F  F35  1  0.466937  0.854365  0.213876  1
  F  F36  1  0.534349  0.409864  0.273866  1
  F  F37  1  0.498705  0.084548  0.256414  1
  F  F38  1  0.726673  0.689002  0.662011  1
  F  F39  1  0.711819  0.808986  0.664257  1
  F  F40  1  0.693041  0.753684  0.140432  1
  F  F41  1  0.736473  0.545427  0.341274  1
  F  F42  1  0.737831  0.953847  0.287102  1
  F  F43  1  0.763527  0.045427  0.841274  1
  F  F44  1  0.762169  0.453847  0.787102  1
  F  F45  1  0.806959  0.253684  0.640432  1
  F  F46  1  0.773327  0.189002  0.162011  1
  F  F47  1  0.788181  0.308986  0.164257  1
  F  F48  1  0.001295  0.584548  0.756414  1
  F  F49  1  0.965651  0.909864  0.773866  1
  F  F50  1  0.034868  0.152780  0.697259  1
  F  F51  1  0.033063  0.354365  0.713876  1
