# generated using pymatgen
data_Mn3Fe(PO4)4
_symmetry_space_group_name_H-M   'P 1'
_cell_length_a   4.92890139
_cell_length_b   11.53337119
_cell_length_c   11.53341871
_cell_angle_alpha   117.16324800
_cell_angle_beta   89.99707761
_cell_angle_gamma   90.00215081
_symmetry_Int_Tables_number   1
_chemical_formula_structural   Mn3Fe(PO4)4
_chemical_formula_sum   'Mn6 Fe2 P8 O32'
_cell_volume   583.32774452
_cell_formula_units_Z   2
loop_
 _symmetry_equiv_pos_site_id
 _symmetry_equiv_pos_as_xyz
  1  'x, y, z'
loop_
 _atom_site_type_symbol
 _atom_site_label
 _atom_site_symmetry_multiplicity
 _atom_site_fract_x
 _atom_site_fract_y
 _atom_site_fract_z
 _atom_site_occupancy
  Mn  Mn0  1  0.930766  0.482934  0.766474  1
  Mn  Mn1  1  0.930775  0.983519  0.267064  1
  Mn  Mn2  1  0.568800  0.734547  0.517945  1
  Mn  Mn3  1  0.568803  0.232056  0.015451  1
  Mn  Mn4  1  0.428894  0.267695  0.482312  1
  Mn  Mn5  1  0.073794  0.018308  0.731684  1
  Fe  Fe6  1  0.457827  0.763054  0.986950  1
  Fe  Fe7  1  0.040280  0.512463  0.237536  1
  P  P8  1  0.915585  0.174913  0.575095  1
  P  P9  1  0.911865  0.673515  0.076477  1
  P  P10  1  0.585960  0.423024  0.326986  1
  P  P11  1  0.586991  0.925362  0.824632  1
  P  P12  1  0.416845  0.073528  0.172953  1
  P  P13  1  0.416822  0.577046  0.676481  1
  P  P14  1  0.082949  0.327661  0.927055  1
  P  P15  1  0.082975  0.822939  0.422341  1
  O  O16  1  0.855700  0.098236  0.651754  1
  O  O17  1  0.843315  0.597912  0.152075  1
  O  O18  1  0.764070  0.612229  0.939912  1
  O  O19  1  0.772599  0.110251  0.439265  1
  O  O20  1  0.772592  0.310739  0.639747  1
  O  O21  1  0.764070  0.810085  0.137774  1
  O  O22  1  0.772102  0.316618  0.935090  1
  O  O23  1  0.772107  0.814921  0.433391  1
  O  O24  1  0.727740  0.565961  0.684547  1
  O  O25  1  0.727749  0.065446  0.184033  1
  O  O26  1  0.735166  0.360880  0.191252  1
  O  O27  1  0.735163  0.558766  0.389134  1
  O  O28  1  0.728472  0.861559  0.687979  1
  O  O29  1  0.728471  0.062017  0.888436  1
  O  O30  1  0.648146  0.849371  0.900633  1
  O  O31  1  0.653037  0.346778  0.403233  1
  O  O32  1  0.357526  0.152693  0.098394  1
  O  O33  1  0.357531  0.651585  0.597294  1
  O  O34  1  0.274564  0.440713  0.612440  1
  O  O35  1  0.277668  0.937240  0.106626  1
  O  O36  1  0.277652  0.643378  0.812764  1
  O  O37  1  0.274570  0.137569  0.309284  1
  O  O38  1  0.276840  0.935785  0.814219  1
  O  O39  1  0.280524  0.433828  0.316179  1
  O  O40  1  0.225493  0.184971  0.565024  1
  O  O41  1  0.217211  0.684909  0.065077  1
  O  O42  1  0.221537  0.686205  0.356835  1
  O  O43  1  0.225946  0.191643  0.862310  1
  O  O44  1  0.221531  0.393167  0.063787  1
  O  O45  1  0.225947  0.887687  0.558361  1
  O  O46  1  0.142504  0.404737  0.850447  1
  O  O47  1  0.142524  0.899552  0.345269  1
