# generated using pymatgen
data_Li4Mn2C4SO16
_symmetry_space_group_name_H-M   'P 1'
_cell_length_a   9.49456453
_cell_length_b   9.68366692
_cell_length_c   9.49456401
_cell_angle_alpha   121.54434892
_cell_angle_beta   93.85066600
_cell_angle_gamma   58.45565095
_symmetry_Int_Tables_number   1
_chemical_formula_structural   Li4Mn2C4SO16
_chemical_formula_sum   'Li8 Mn4 C8 S2 O32'
_cell_volume   607.85313691
_cell_formula_units_Z   2
loop_
 _symmetry_equiv_pos_site_id
 _symmetry_equiv_pos_as_xyz
  1  'x, y, z'
loop_
 _atom_site_type_symbol
 _atom_site_label
 _atom_site_symmetry_multiplicity
 _atom_site_fract_x
 _atom_site_fract_y
 _atom_site_fract_z
 _atom_site_occupancy
  Li  Li0  1  0.079459  0.750000  0.079459  1
  Li  Li1  1  0.324295  0.851410  0.925705  1
  Li  Li2  1  0.329459  0.250000  0.329459  1
  Li  Li3  1  0.074295  0.351410  0.675705  1
  Li  Li4  1  0.925705  0.648590  0.324295  1
  Li  Li5  1  0.670541  0.750000  0.670541  1
  Li  Li6  1  0.675705  0.148590  0.074295  1
  Li  Li7  1  0.920541  0.250000  0.920541  1
  Mn  Mn8  1  0.500000  0.500000  0.000000  1
  Mn  Mn9  1  0.500000  0.500000  0.500000  1
  Mn  Mn10  1  0.000000  0.000000  0.500000  1
  Mn  Mn11  1  0.500000  0.000000  0.500000  1
  C  C12  1  0.263150  0.949581  0.291055  1
  C  C13  1  0.287269  0.949581  0.658526  1
  C  C14  1  0.291055  0.550419  0.263150  1
  C  C15  1  0.658526  0.550419  0.287269  1
  C  C16  1  0.341474  0.449581  0.712731  1
  C  C17  1  0.708945  0.449581  0.736850  1
  C  C18  1  0.712731  0.050419  0.341474  1
  C  C19  1  0.736850  0.050419  0.708945  1
  S  S20  1  0.125000  0.250000  0.125000  1
  S  S21  1  0.875000  0.750000  0.875000  1
  O  O22  1  0.273848  0.816665  0.142565  1
  O  O23  1  0.142565  0.683335  0.273848  1
  O  O24  1  0.389924  0.970440  0.310735  1
  O  O25  1  0.049013  0.381193  0.063346  1
  O  O26  1  0.139637  0.970440  0.659705  1
  O  O27  1  0.069793  0.381193  0.317848  1
  O  O28  1  0.063346  0.118807  0.049013  1
  O  O29  1  0.696242  0.933328  0.355874  1
  O  O30  1  0.422546  0.433328  0.129570  1
  O  O31  1  0.310735  0.529560  0.389924  1
  O  O32  1  0.317848  0.118807  0.069793  1
  O  O33  1  0.659705  0.529560  0.139637  1
  O  O34  1  0.409488  0.816665  0.674099  1
  O  O35  1  0.674099  0.683335  0.409488  1
  O  O36  1  0.355874  0.566672  0.696242  1
  O  O37  1  0.129570  0.066672  0.422546  1
  O  O38  1  0.870430  0.933328  0.577454  1
  O  O39  1  0.644126  0.433328  0.303758  1
  O  O40  1  0.325901  0.316665  0.590512  1
  O  O41  1  0.590512  0.183335  0.325901  1
  O  O42  1  0.340295  0.470440  0.860363  1
  O  O43  1  0.682152  0.881193  0.930207  1
  O  O44  1  0.689265  0.470440  0.610076  1
  O  O45  1  0.577454  0.566672  0.870430  1
  O  O46  1  0.303758  0.066672  0.644126  1
  O  O47  1  0.936654  0.881193  0.950987  1
  O  O48  1  0.930207  0.618807  0.682152  1
  O  O49  1  0.860363  0.029560  0.340295  1
  O  O50  1  0.950987  0.618807  0.936654  1
  O  O51  1  0.610076  0.029560  0.689265  1
  O  O52  1  0.857435  0.316665  0.726152  1
  O  O53  1  0.726152  0.183335  0.857435  1
