# generated using pymatgen
data_Li4Fe5(CoO6)2
_symmetry_space_group_name_H-M   'P 1'
_cell_length_a   5.22826744
_cell_length_b   8.91639067
_cell_length_c   9.81084937
_cell_angle_alpha   90.00000151
_cell_angle_beta   99.27531243
_cell_angle_gamma   90.00000671
_symmetry_Int_Tables_number   1
_chemical_formula_structural   Li4Fe5(CoO6)2
_chemical_formula_sum   'Li8 Fe10 Co4 O24'
_cell_volume   451.37526339
_cell_formula_units_Z   2
loop_
 _symmetry_equiv_pos_site_id
 _symmetry_equiv_pos_as_xyz
  1  'x, y, z'
loop_
 _atom_site_type_symbol
 _atom_site_label
 _atom_site_symmetry_multiplicity
 _atom_site_fract_x
 _atom_site_fract_y
 _atom_site_fract_z
 _atom_site_occupancy
  Li  Li0  1  0.233360  0.096529  0.996932  1
  Li  Li1  1  0.763050  0.082912  0.507622  1
  Li  Li2  1  0.488969  0.416118  0.753124  1
  Li  Li3  1  0.751898  0.410018  0.506164  1
  Li  Li4  1  0.266640  0.596529  0.503068  1
  Li  Li5  1  0.736950  0.582912  0.992378  1
  Li  Li6  1  0.011031  0.916118  0.746876  1
  Li  Li7  1  0.748102  0.910018  0.993836  1
  Fe  Fe8  1  0.994243  0.081174  0.252623  1
  Fe  Fe9  1  0.499358  0.078333  0.747338  1
  Fe  Fe10  1  0.253086  0.248495  0.506816  1
  Fe  Fe11  1  0.009355  0.421001  0.247015  1
  Fe  Fe12  1  0.739806  0.255629  0.990603  1
  Fe  Fe13  1  0.000642  0.578333  0.752662  1
  Fe  Fe14  1  0.505757  0.581174  0.247377  1
  Fe  Fe15  1  0.246914  0.748495  0.993184  1
  Fe  Fe16  1  0.760194  0.755629  0.509397  1
  Fe  Fe17  1  0.490645  0.921001  0.252985  1
  Co  Co18  1  0.004645  0.252103  0.755537  1
  Co  Co19  1  0.493519  0.253711  0.243166  1
  Co  Co20  1  0.006481  0.753711  0.256834  1
  Co  Co21  1  0.495355  0.752103  0.744463  1
  O  O22  1  0.124283  0.104448  0.639694  1
  O  O23  1  0.356677  0.090556  0.362974  1
  O  O24  1  0.096165  0.246552  0.130208  1
  O  O25  1  0.397868  0.232302  0.876598  1
  O  O26  1  0.868112  0.099152  0.867892  1
  O  O27  1  0.638473  0.083169  0.130498  1
  O  O28  1  0.598682  0.236340  0.615554  1
  O  O29  1  0.113823  0.403157  0.635684  1
  O  O30  1  0.362897  0.418596  0.371159  1
  O  O31  1  0.897530  0.252376  0.373639  1
  O  O32  1  0.864697  0.403005  0.858781  1
  O  O33  1  0.375717  0.604448  0.860306  1
  O  O34  1  0.143323  0.590556  0.137026  1
  O  O35  1  0.653507  0.419524  0.131319  1
  O  O36  1  0.102132  0.732302  0.623402  1
  O  O37  1  0.631888  0.599152  0.632108  1
  O  O38  1  0.861527  0.583169  0.369502  1
  O  O39  1  0.403835  0.746552  0.369792  1
  O  O40  1  0.602470  0.752376  0.126361  1
  O  O41  1  0.901318  0.736340  0.884446  1
  O  O42  1  0.386177  0.903157  0.864316  1
  O  O43  1  0.137103  0.918596  0.128841  1
  O  O44  1  0.635303  0.903005  0.641219  1
  O  O45  1  0.846493  0.919524  0.368681  1
