# generated using pymatgen
data_LiV2F7
_symmetry_space_group_name_H-M   'P 1'
_cell_length_a   8.52536369
_cell_length_b   6.92611176
_cell_length_c   5.43364542
_cell_angle_alpha   86.09850651
_cell_angle_beta   103.13599404
_cell_angle_gamma   109.36660578
_symmetry_Int_Tables_number   1
_chemical_formula_structural   LiV2F7
_chemical_formula_sum   'Li2 V4 F14'
_cell_volume   294.75952940
_cell_formula_units_Z   2
loop_
 _symmetry_equiv_pos_site_id
 _symmetry_equiv_pos_as_xyz
  1  'x, y, z'
loop_
 _atom_site_type_symbol
 _atom_site_label
 _atom_site_symmetry_multiplicity
 _atom_site_fract_x
 _atom_site_fract_y
 _atom_site_fract_z
 _atom_site_occupancy
  Li  Li0  1  0.256616  0.977695  0.870109  1
  Li  Li1  1  0.743384  0.022305  0.129891  1
  V  V2  1  0.179257  0.281743  0.293433  1
  V  V3  1  0.325308  0.514892  0.817560  1
  V  V4  1  0.674692  0.485108  0.182440  1
  V  V5  1  0.820743  0.718257  0.706567  1
  F  F6  1  0.044009  0.819874  0.666355  1
  F  F7  1  0.117795  0.386852  0.934856  1
  F  F8  1  0.236547  0.552567  0.455373  1
  F  F9  1  0.379436  0.787390  0.916161  1
  F  F10  1  0.287918  0.236693  0.668658  1
  F  F11  1  0.207511  0.052774  0.167482  1
  F  F12  1  0.425920  0.438439  0.192361  1
  F  F13  1  0.574080  0.561561  0.807639  1
  F  F14  1  0.792489  0.947226  0.832518  1
  F  F15  1  0.712082  0.763307  0.331342  1
  F  F16  1  0.620564  0.212610  0.083839  1
  F  F17  1  0.763453  0.447433  0.544627  1
  F  F18  1  0.882205  0.613148  0.065144  1
  F  F19  1  0.955991  0.180126  0.333645  1
