# generated using pymatgen
data_Li3FeNi3O8
_symmetry_space_group_name_H-M   'P 1'
_cell_length_a   5.82360923
_cell_length_b   5.92278483
_cell_length_c   5.77875880
_cell_angle_alpha   60.80119778
_cell_angle_beta   119.74557067
_cell_angle_gamma   120.25598159
_symmetry_Int_Tables_number   1
_chemical_formula_structural   Li3FeNi3O8
_chemical_formula_sum   'Li3 Fe1 Ni3 O8'
_cell_volume   141.76747754
_cell_formula_units_Z   1
loop_
 _symmetry_equiv_pos_site_id
 _symmetry_equiv_pos_as_xyz
  1  'x, y, z'
loop_
 _atom_site_type_symbol
 _atom_site_label
 _atom_site_symmetry_multiplicity
 _atom_site_fract_x
 _atom_site_fract_y
 _atom_site_fract_z
 _atom_site_occupancy
  Li  Li0  1  0.000000  0.500000  0.500000  1
  Li  Li1  1  0.500000  0.500000  0.000000  1
  Li  Li2  1  0.000000  0.500000  0.000000  1
  Fe  Fe3  1  0.000000  0.000000  0.500000  1
  Ni  Ni4  1  0.500000  0.000000  0.500000  1
  Ni  Ni5  1  0.500000  0.000000  0.000000  1
  Ni  Ni6  1  0.000000  0.000000  0.000000  1
  O  O7  1  0.774902  0.778469  0.763848  1
  O  O8  1  0.253436  0.777049  0.738193  1
  O  O9  1  0.243475  0.795883  0.223796  1
  O  O10  1  0.774902  0.778469  0.232585  1
  O  O11  1  0.225098  0.221531  0.767415  1
  O  O12  1  0.756525  0.204117  0.776204  1
  O  O13  1  0.746564  0.222951  0.261807  1
  O  O14  1  0.225098  0.221531  0.236152  1
