# generated using pymatgen
data_LiLa4MnO8
_symmetry_space_group_name_H-M   'P 1'
_cell_length_a   5.41770273
_cell_length_b   7.00910960
_cell_length_c   5.41802823
_cell_angle_alpha   90.00000453
_cell_angle_beta   89.99969342
_cell_angle_gamma   112.73871357
_symmetry_Int_Tables_number   1
_chemical_formula_structural   LiLa4MnO8
_chemical_formula_sum   'Li1 La4 Mn1 O8'
_cell_volume   189.74953732
_cell_formula_units_Z   1
loop_
 _symmetry_equiv_pos_site_id
 _symmetry_equiv_pos_as_xyz
  1  'x, y, z'
loop_
 _atom_site_type_symbol
 _atom_site_label
 _atom_site_symmetry_multiplicity
 _atom_site_fract_x
 _atom_site_fract_y
 _atom_site_fract_z
 _atom_site_occupancy
  Li  Li0  1  0.499998  0.999999  0.500003  1
  La  La1  1  0.138677  0.277365  0.499986  1
  La  La2  1  0.637057  0.274036  0.000002  1
  La  La3  1  0.362947  0.725976  0.000009  1
  La  La4  1  0.861304  0.722619  0.500010  1
  Mn  Mn5  1  0.000006  0.000000  0.000000  1
  O  O6  1  0.248109  0.000023  0.246667  1
  O  O7  1  0.248110  0.000024  0.753340  1
  O  O8  1  0.751892  0.999979  0.246665  1
  O  O9  1  0.751900  0.999979  0.753334  1
  O  O10  1  0.180495  0.361365  0.999992  1
  O  O11  1  0.681979  0.364116  0.499993  1
  O  O12  1  0.318016  0.635883  0.500001  1
  O  O13  1  0.819511  0.638637  0.999997  1
