# generated using pymatgen
data_Ti3Mn2Co3O16
_symmetry_space_group_name_H-M   'P 1'
_cell_length_a   5.75506220
_cell_length_b   5.82772063
_cell_length_c   8.89751277
_cell_angle_alpha   89.78899240
_cell_angle_beta   88.87476847
_cell_angle_gamma   120.14203444
_symmetry_Int_Tables_number   1
_chemical_formula_structural   Ti3Mn2Co3O16
_chemical_formula_sum   'Ti3 Mn2 Co3 O16'
_cell_volume   257.98092389
_cell_formula_units_Z   1
loop_
 _symmetry_equiv_pos_site_id
 _symmetry_equiv_pos_as_xyz
  1  'x, y, z'
loop_
 _atom_site_type_symbol
 _atom_site_label
 _atom_site_symmetry_multiplicity
 _atom_site_fract_x
 _atom_site_fract_y
 _atom_site_fract_z
 _atom_site_occupancy
  Ti  Ti0  1  0.153021  0.827698  0.205961  1
  Ti  Ti1  1  0.153283  0.325536  0.206112  1
  Ti  Ti2  1  0.314531  0.158197  0.707103  1
  Mn  Mn3  1  0.335243  0.666580  0.484910  1
  Mn  Mn4  1  0.667783  0.334974  0.979202  1
  Co  Co5  1  0.657461  0.828528  0.213440  1
  Co  Co6  1  0.826118  0.664038  0.707564  1
  Co  Co7  1  0.825637  0.169156  0.711397  1
  O  O8  1  0.169464  0.829581  0.603662  1
  O  O9  1  0.047437  0.523828  0.345857  1
  O  O10  1  0.351139  0.675693  0.099786  1
  O  O11  1  0.987531  0.993501  0.318042  1
  O  O12  1  0.978929  0.993723  0.816812  1
  O  O13  1  0.170433  0.338754  0.601955  1
  O  O14  1  0.490370  0.956016  0.342918  1
  O  O15  1  0.490848  0.533387  0.342744  1
  O  O16  1  0.346193  0.173269  0.103647  1
  O  O17  1  0.674351  0.831674  0.606503  1
  O  O18  1  0.526753  0.481366  0.840470  1
  O  O19  1  0.529006  0.043655  0.842350  1
  O  O20  1  0.681121  0.336434  0.603161  1
  O  O21  1  0.833034  0.659818  0.100343  1
  O  O22  1  0.957144  0.481629  0.831266  1
  O  O23  1  0.833172  0.173163  0.100513  1
