# generated using pymatgen
data_Li4Mn3Co3(SbO8)2
_symmetry_space_group_name_H-M   'P 1'
_cell_length_a   5.88105499
_cell_length_b   5.84326876
_cell_length_c   9.63745800
_cell_angle_alpha   89.99890320
_cell_angle_beta   92.02062180
_cell_angle_gamma   119.78266925
_symmetry_Int_Tables_number   1
_chemical_formula_structural   Li4Mn3Co3(SbO8)2
_chemical_formula_sum   'Li4 Mn3 Co3 Sb2 O16'
_cell_volume   287.20545315
_cell_formula_units_Z   1
loop_
 _symmetry_equiv_pos_site_id
 _symmetry_equiv_pos_as_xyz
  1  'x, y, z'
loop_
 _atom_site_type_symbol
 _atom_site_label
 _atom_site_symmetry_multiplicity
 _atom_site_fract_x
 _atom_site_fract_y
 _atom_site_fract_z
 _atom_site_occupancy
  Li  Li0  1  0.319658  0.659871  0.907586  1
  Li  Li1  1  0.008698  0.004352  0.992123  1
  Li  Li2  1  0.020725  0.010371  0.489451  1
  Li  Li3  1  0.664158  0.332048  0.397934  1
  Mn  Mn4  1  0.664743  0.832297  0.212266  1
  Mn  Mn5  1  0.833820  0.663651  0.713200  1
  Mn  Mn6  1  0.833809  0.170233  0.713195  1
  Co  Co7  1  0.171579  0.830417  0.214431  1
  Co  Co8  1  0.171556  0.341173  0.214432  1
  Co  Co9  1  0.343449  0.171748  0.716201  1
  Sb  Sb10  1  0.336148  0.668067  0.483970  1
  Sb  Sb11  1  0.656700  0.328369  0.990075  1
  O  O12  1  0.180278  0.842796  0.593400  1
  O  O13  1  0.034554  0.517304  0.331057  1
  O  O14  1  0.329006  0.664499  0.116896  1
  O  O15  1  0.006617  0.003315  0.301635  1
  O  O16  1  0.011275  0.005666  0.802218  1
  O  O17  1  0.180205  0.337466  0.593395  1
  O  O18  1  0.470473  0.966327  0.343758  1
  O  O19  1  0.470433  0.504054  0.343793  1
  O  O20  1  0.325573  0.162798  0.104533  1
  O  O21  1  0.683339  0.841668  0.588694  1
  O  O22  1  0.491087  0.465443  0.847176  1
  O  O23  1  0.491150  0.025723  0.847174  1
  O  O24  1  0.660357  0.330218  0.615684  1
  O  O25  1  0.842828  0.673932  0.092455  1
  O  O26  1  0.954914  0.477510  0.848649  1
  O  O27  1  0.842865  0.168983  0.092459  1
