# generated using pymatgen
data_Cr(PO3)5
_symmetry_space_group_name_H-M   'P 1'
_cell_length_a   12.35493429
_cell_length_b   9.72838691
_cell_length_c   5.21512426
_cell_angle_alpha   90.00000000
_cell_angle_beta   93.47992684
_cell_angle_gamma   90.00000000
_symmetry_Int_Tables_number   1
_chemical_formula_structural   Cr(PO3)5
_chemical_formula_sum   'Cr2 P10 O30'
_cell_volume   625.66867368
_cell_formula_units_Z   2
loop_
 _symmetry_equiv_pos_site_id
 _symmetry_equiv_pos_as_xyz
  1  'x, y, z'
loop_
 _atom_site_type_symbol
 _atom_site_label
 _atom_site_symmetry_multiplicity
 _atom_site_fract_x
 _atom_site_fract_y
 _atom_site_fract_z
 _atom_site_occupancy
  Cr  Cr0  1  0.995809  0.002744  0.005275  1
  Cr  Cr1  1  0.495809  0.997256  0.505275  1
  P  P2  1  0.142673  0.470104  0.615066  1
  P  P3  1  0.080444  0.177088  0.510689  1
  P  P4  1  0.360296  0.467709  0.882347  1
  P  P5  1  0.246132  0.016764  0.256736  1
  P  P6  1  0.746132  0.983236  0.756736  1
  P  P7  1  0.913585  0.826137  0.501146  1
  P  P8  1  0.580444  0.822912  0.010689  1
  P  P9  1  0.413585  0.173863  0.001146  1
  P  P10  1  0.860296  0.532291  0.382347  1
  P  P11  1  0.642673  0.529896  0.115066  1
  O  O12  1  0.554894  0.844948  0.285682  1
  O  O13  1  0.436051  0.513708  0.683410  1
  O  O14  1  0.839854  0.060750  0.885631  1
  O  O15  1  0.069090  0.520864  0.814847  1
  O  O16  1  0.292639  0.122766  0.050024  1
  O  O17  1  0.401062  0.336498  0.042734  1
  O  O18  1  0.660873  0.410557  0.939403  1
  O  O19  1  0.098605  0.338312  0.461306  1
  O  O20  1  0.999622  0.131422  0.300838  1
  O  O21  1  0.494424  0.126180  0.209385  1
  O  O22  1  0.598605  0.661688  0.961306  1
  O  O23  1  0.652028  0.057412  0.622291  1
  O  O24  1  0.751298  0.595762  0.247498  1
  O  O25  1  0.160873  0.589443  0.439403  1
  O  O26  1  0.499622  0.868578  0.800838  1
  O  O27  1  0.054894  0.155052  0.785682  1
  O  O28  1  0.436266  0.147580  0.725640  1
  O  O29  1  0.901062  0.663502  0.542734  1
  O  O30  1  0.843362  0.410756  0.553659  1
  O  O31  1  0.936266  0.852420  0.225640  1
  O  O32  1  0.994424  0.873820  0.709385  1
  O  O33  1  0.152028  0.942588  0.122291  1
  O  O34  1  0.343362  0.589244  0.053659  1
  O  O35  1  0.936051  0.486292  0.183410  1
  O  O36  1  0.792639  0.877234  0.550024  1
  O  O37  1  0.339854  0.939250  0.385631  1
  O  O38  1  0.569090  0.479136  0.314847  1
  O  O39  1  0.251298  0.404238  0.747498  1
  O  O40  1  0.700236  0.881673  0.971059  1
  O  O41  1  0.200236  0.118327  0.471059  1
