# generated using pymatgen
data_Mn3CrO8
_symmetry_space_group_name_H-M   'P 1'
_cell_length_a   8.25351981
_cell_length_b   8.24841589
_cell_length_c   8.25186401
_cell_angle_alpha   89.97937017
_cell_angle_beta   90.00828439
_cell_angle_gamma   90.08204693
_symmetry_Int_Tables_number   1
_chemical_formula_structural   Mn3CrO8
_chemical_formula_sum   'Mn12 Cr4 O32'
_cell_volume   561.77360830
_cell_formula_units_Z   4
loop_
 _symmetry_equiv_pos_site_id
 _symmetry_equiv_pos_as_xyz
  1  'x, y, z'
loop_
 _atom_site_type_symbol
 _atom_site_label
 _atom_site_symmetry_multiplicity
 _atom_site_fract_x
 _atom_site_fract_y
 _atom_site_fract_z
 _atom_site_occupancy
  Mn  Mn0  1  0.124130  0.126165  0.625360  1
  Mn  Mn1  1  0.124709  0.375552  0.874246  1
  Mn  Mn2  1  0.125549  0.624623  0.124174  1
  Mn  Mn3  1  0.374788  0.374886  0.624339  1
  Mn  Mn4  1  0.375321  0.624286  0.374297  1
  Mn  Mn5  1  0.375499  0.874364  0.124798  1
  Mn  Mn6  1  0.624280  0.374158  0.374820  1
  Mn  Mn7  1  0.625245  0.123986  0.125584  1
  Mn  Mn8  1  0.626084  0.875244  0.875763  1
  Mn  Mn9  1  0.874144  0.125274  0.375727  1
  Mn  Mn10  1  0.874736  0.875893  0.625816  1
  Mn  Mn11  1  0.875557  0.625551  0.874971  1
  Cr  Cr12  1  0.124789  0.875152  0.375272  1
  Cr  Cr13  1  0.375249  0.125170  0.875045  1
  Cr  Cr14  1  0.625253  0.624948  0.625172  1
  Cr  Cr15  1  0.874574  0.374875  0.124849  1
  O  O16  1  0.107820  0.110408  0.391062  1
  O  O17  1  0.108662  0.892029  0.610635  1
  O  O18  1  0.110603  0.611138  0.889155  1
  O  O19  1  0.137866  0.141955  0.859098  1
  O  O20  1  0.110302  0.390274  0.108084  1
  O  O21  1  0.139690  0.361194  0.638954  1
  O  O22  1  0.141305  0.639427  0.357770  1
  O  O23  1  0.142341  0.858859  0.139405  1
  O  O24  1  0.357986  0.140148  0.639958  1
  O  O25  1  0.358970  0.359608  0.858496  1
  O  O26  1  0.360777  0.639174  0.139014  1
  O  O27  1  0.390225  0.609450  0.608638  1
  O  O28  1  0.360821  0.857936  0.358663  1
  O  O29  1  0.388912  0.388946  0.389478  1
  O  O30  1  0.391085  0.108833  0.110134  1
  O  O31  1  0.392152  0.890557  0.890218  1
  O  O32  1  0.608109  0.388875  0.609043  1
  O  O33  1  0.609483  0.607927  0.389320  1
  O  O34  1  0.610621  0.889111  0.111073  1
  O  O35  1  0.639580  0.358435  0.140582  1
  O  O36  1  0.612209  0.109348  0.892300  1
  O  O37  1  0.639199  0.138968  0.360723  1
  O  O38  1  0.640589  0.861047  0.642117  1
  O  O39  1  0.641642  0.640811  0.860731  1
  O  O40  1  0.857987  0.359483  0.360862  1
  O  O41  1  0.859714  0.139824  0.141778  1
  O  O42  1  0.861076  0.860667  0.860907  1
  O  O43  1  0.889288  0.891009  0.392221  1
  O  O44  1  0.859695  0.641425  0.640304  1
  O  O45  1  0.889090  0.110871  0.610808  1
  O  O46  1  0.890799  0.391986  0.889050  1
  O  O47  1  0.891495  0.610292  0.109323  1
