# generated using pymatgen
data_LiFeSiO4
_symmetry_space_group_name_H-M   'P 1'
_cell_length_a   6.73650982
_cell_length_b   5.21672293
_cell_length_c   5.09997613
_cell_angle_alpha   90.25302798
_cell_angle_beta   90.29278155
_cell_angle_gamma   89.99552732
_symmetry_Int_Tables_number   1
_chemical_formula_structural   LiFeSiO4
_chemical_formula_sum   'Li2 Fe2 Si2 O8'
_cell_volume   179.22184995
_cell_formula_units_Z   2
loop_
 _symmetry_equiv_pos_site_id
 _symmetry_equiv_pos_as_xyz
  1  'x, y, z'
loop_
 _atom_site_type_symbol
 _atom_site_label
 _atom_site_symmetry_multiplicity
 _atom_site_fract_x
 _atom_site_fract_y
 _atom_site_fract_z
 _atom_site_occupancy
  Li  Li0  1  0.001658  0.818636  0.510598  1
  Li  Li1  1  0.504338  0.179603  0.013268  1
  Fe  Fe2  1  0.004848  0.177027  0.015260  1
  Fe  Fe3  1  0.504077  0.821136  0.512625  1
  Si  Si4  1  0.252342  0.684310  0.013490  1
  Si  Si5  1  0.754314  0.315223  0.517629  1
  O  O6  1  0.054518  0.834553  0.898997  1
  O  O7  1  0.238929  0.374858  0.952561  1
  O  O8  1  0.265028  0.737322  0.332420  1
  O  O9  1  0.449465  0.814536  0.878038  1
  O  O10  1  0.557844  0.162969  0.401955  1
  O  O11  1  0.739448  0.623366  0.454570  1
  O  O12  1  0.766506  0.266474  0.837144  1
  O  O13  1  0.952021  0.184660  0.381583  1
