# generated using pymatgen
data_Mn2(SO4)3
_symmetry_space_group_name_H-M   'P 1'
_cell_length_a   8.36469342
_cell_length_b   9.04432926
_cell_length_c   8.36469371
_cell_angle_alpha   117.54386018
_cell_angle_beta   60.00000114
_cell_angle_gamma   117.54386189
_symmetry_Int_Tables_number   1
_chemical_formula_structural   Mn2(SO4)3
_chemical_formula_sum   'Mn4 S6 O24'
_cell_volume   463.36579432
_cell_formula_units_Z   2
loop_
 _symmetry_equiv_pos_site_id
 _symmetry_equiv_pos_as_xyz
  1  'x, y, z'
loop_
 _atom_site_type_symbol
 _atom_site_label
 _atom_site_symmetry_multiplicity
 _atom_site_fract_x
 _atom_site_fract_y
 _atom_site_fract_z
 _atom_site_occupancy
  Mn  Mn0  1  0.144326  0.432976  0.144326  1
  Mn  Mn1  1  0.345922  0.037768  0.345922  1
  Mn  Mn2  1  0.654078  0.962232  0.654078  1
  Mn  Mn3  1  0.855674  0.567024  0.855674  1
  S  S4  1  0.043642  0.244355  0.456712  1
  S  S5  1  0.543288  0.755645  0.256000  1
  S  S6  1  0.256000  0.755645  0.956358  1
  S  S7  1  0.744000  0.244355  0.043642  1
  S  S8  1  0.456712  0.244355  0.744000  1
  S  S9  1  0.956358  0.755645  0.543288  1
  O  O10  1  0.218353  0.895675  0.149912  1
  O  O11  1  0.149912  0.895675  0.527410  1
  O  O12  1  0.020550  0.411178  0.604429  1
  O  O13  1  0.126725  0.256843  0.259630  1
  O  O14  1  0.527410  0.895675  0.218353  1
  O  O15  1  0.129512  0.743157  0.873275  1
  O  O16  1  0.395571  0.588822  0.213801  1
  O  O17  1  0.172251  0.196171  0.487839  1
  O  O18  1  0.512161  0.803829  0.463919  1
  O  O19  1  0.213801  0.588822  0.979450  1
  O  O20  1  0.740370  0.743157  0.129512  1
  O  O21  1  0.463919  0.803829  0.827749  1
  O  O22  1  0.536081  0.196171  0.172251  1
  O  O23  1  0.259630  0.256843  0.870488  1
  O  O24  1  0.786199  0.411178  0.020550  1
  O  O25  1  0.487839  0.196171  0.536081  1
  O  O26  1  0.827749  0.803829  0.512161  1
  O  O27  1  0.604429  0.411178  0.786199  1
  O  O28  1  0.870488  0.256843  0.126725  1
  O  O29  1  0.472590  0.104325  0.781647  1
  O  O30  1  0.873275  0.743157  0.740370  1
  O  O31  1  0.979450  0.588822  0.395571  1
  O  O32  1  0.850088  0.104325  0.472590  1
  O  O33  1  0.781647  0.104325  0.850088  1
