# generated using pymatgen
data_Li5VO4F
_symmetry_space_group_name_H-M   'P 1'
_cell_length_a   5.24274234
_cell_length_b   5.37772818
_cell_length_c   8.91983626
_cell_angle_alpha   90.00000000
_cell_angle_beta   90.00000000
_cell_angle_gamma   65.73046796
_symmetry_Int_Tables_number   1
_chemical_formula_structural   Li5VO4F
_chemical_formula_sum   'Li10 V2 O8 F2'
_cell_volume   229.26039148
_cell_formula_units_Z   2
loop_
 _symmetry_equiv_pos_site_id
 _symmetry_equiv_pos_as_xyz
  1  'x, y, z'
loop_
 _atom_site_type_symbol
 _atom_site_label
 _atom_site_symmetry_multiplicity
 _atom_site_fract_x
 _atom_site_fract_y
 _atom_site_fract_z
 _atom_site_occupancy
  Li  Li0  1  0.291972  0.018805  0.933443  1
  Li  Li1  1  0.246447  0.083552  0.559314  1
  Li  Li2  1  0.184664  0.461185  0.747582  1
  Li  Li3  1  0.201413  0.576044  0.459769  1
  Li  Li4  1  0.292772  0.472401  0.046213  1
  Li  Li5  1  0.707228  0.527599  0.546213  1
  Li  Li6  1  0.798587  0.423956  0.959769  1
  Li  Li7  1  0.815336  0.538815  0.247582  1
  Li  Li8  1  0.753553  0.916448  0.059314  1
  Li  Li9  1  0.708028  0.981195  0.433443  1
  V  V10  1  0.234956  0.933919  0.230843  1
  V  V11  1  0.765044  0.066081  0.730843  1
  O  O12  1  0.100685  0.238731  0.114904  1
  O  O13  1  0.054546  0.165881  0.756699  1
  O  O14  1  0.503789  0.290217  0.588886  1
  O  O15  1  0.559447  0.198681  0.904206  1
  O  O16  1  0.440553  0.801319  0.404206  1
  O  O17  1  0.496211  0.709783  0.088886  1
  O  O18  1  0.945454  0.834119  0.256699  1
  O  O19  1  0.899315  0.761269  0.614904  1
  F  F20  1  0.001761  0.319402  0.417577  1
  F  F21  1  0.998239  0.680598  0.917577  1
