# generated using pymatgen
data_Li4Mn3Cr3O12
_symmetry_space_group_name_H-M   'P 1'
_cell_length_a   5.28588054
_cell_length_b   5.28569157
_cell_length_c   8.95565701
_cell_angle_alpha   99.77656907
_cell_angle_beta   80.22241337
_cell_angle_gamma   64.88591105
_symmetry_Int_Tables_number   1
_chemical_formula_structural   Li4Mn3Cr3O12
_chemical_formula_sum   'Li4 Mn3 Cr3 O12'
_cell_volume   214.91185567
_cell_formula_units_Z   1
loop_
 _symmetry_equiv_pos_site_id
 _symmetry_equiv_pos_as_xyz
  1  'x, y, z'
loop_
 _atom_site_type_symbol
 _atom_site_label
 _atom_site_symmetry_multiplicity
 _atom_site_fract_x
 _atom_site_fract_y
 _atom_site_fract_z
 _atom_site_occupancy
  Li  Li0  1  0.170737  0.829234  0.658557  1
  Li  Li1  1  0.829213  0.170764  0.341482  1
  Li  Li2  1  0.579635  0.920329  0.840734  1
  Li  Li3  1  0.920349  0.579618  0.159231  1
  Mn  Mn4  1  0.000013  0.999993  0.999989  1
  Mn  Mn5  1  0.335555  0.664433  0.328850  1
  Mn  Mn6  1  0.664434  0.335557  0.671156  1
  Cr  Cr7  1  0.085686  0.414328  0.828659  1
  Cr  Cr8  1  0.414332  0.085702  0.171357  1
  Cr  Cr9  1  0.749999  0.750000  0.499990  1
  O  O10  1  0.216721  0.216693  0.999992  1
  O  O11  1  0.107658  0.456134  0.325900  1
  O  O12  1  0.177798  0.873062  0.174768  1
  O  O13  1  0.456155  0.107649  0.674088  1
  O  O14  1  0.301770  0.647462  0.825354  1
  O  O15  1  0.647359  0.301839  0.174711  1
  O  O16  1  0.526923  0.527049  0.499949  1
  O  O17  1  0.566485  0.869721  0.325882  1
  O  O18  1  0.783303  0.783307  0.999992  1
  O  O19  1  0.873067  0.177748  0.825302  1
  O  O20  1  0.869708  0.566482  0.674110  1
  O  O21  1  0.973101  0.972895  0.499948  1
