# generated using pymatgen
data_NbFe3Cu2(PO4)6
_symmetry_space_group_name_H-M   'P 1'
_cell_length_a   8.65130351
_cell_length_b   8.65130341
_cell_length_c   8.65130391
_cell_angle_alpha   60.19655823
_cell_angle_beta   60.19655833
_cell_angle_gamma   60.19655494
_symmetry_Int_Tables_number   1
_chemical_formula_structural   NbFe3Cu2(PO4)6
_chemical_formula_sum   'Nb1 Fe3 Cu2 P6 O24'
_cell_volume   459.89466289
_cell_formula_units_Z   1
loop_
 _symmetry_equiv_pos_site_id
 _symmetry_equiv_pos_as_xyz
  1  'x, y, z'
loop_
 _atom_site_type_symbol
 _atom_site_label
 _atom_site_symmetry_multiplicity
 _atom_site_fract_x
 _atom_site_fract_y
 _atom_site_fract_z
 _atom_site_occupancy
  Nb  Nb0  1  0.858135  0.858135  0.858135  1
  Fe  Fe1  1  0.145472  0.145472  0.145472  1
  Fe  Fe2  1  0.355948  0.355948  0.355948  1
  Fe  Fe3  1  0.644733  0.644733  0.644733  1
  Cu  Cu4  1  0.006066  0.006066  0.006066  1
  Cu  Cu5  1  0.500472  0.500472  0.500472  1
  P  P6  1  0.045554  0.747708  0.451169  1
  P  P7  1  0.451169  0.045554  0.747708  1
  P  P8  1  0.747708  0.451169  0.045554  1
  P  P9  1  0.257195  0.536232  0.956747  1
  P  P10  1  0.536232  0.956747  0.257195  1
  P  P11  1  0.956747  0.257195  0.536232  1
  O  O12  1  0.115949  0.309391  0.505645  1
  O  O13  1  0.309391  0.505645  0.115949  1
  O  O14  1  0.059384  0.914464  0.262554  1
  O  O15  1  0.505645  0.115949  0.309391  1
  O  O16  1  0.997320  0.809813  0.617690  1
  O  O17  1  0.237211  0.586071  0.445816  1
  O  O18  1  0.262554  0.059384  0.914464  1
  O  O19  1  0.445816  0.237211  0.586071  1
  O  O20  1  0.191725  0.383121  0.994258  1
  O  O21  1  0.586071  0.445816  0.237211  1
  O  O22  1  0.089049  0.732944  0.938719  1
  O  O23  1  0.383121  0.994258  0.191725  1
  O  O24  1  0.617690  0.997320  0.809813  1
  O  O25  1  0.914464  0.262554  0.059384  1
  O  O26  1  0.415855  0.556727  0.761678  1
  O  O27  1  0.809813  0.617690  0.997320  1
  O  O28  1  0.556727  0.761678  0.415855  1
  O  O29  1  0.732944  0.938719  0.089049  1
  O  O30  1  0.761678  0.415855  0.556727  1
  O  O31  1  0.994258  0.191725  0.383121  1
  O  O32  1  0.493931  0.884465  0.690789  1
  O  O33  1  0.938719  0.089049  0.732944  1
  O  O34  1  0.690789  0.493931  0.884465  1
  O  O35  1  0.884465  0.690789  0.493931  1
