# generated using pymatgen
data_Mn3Co2Te3O16
_symmetry_space_group_name_H-M   'P 1'
_cell_length_a   6.16833532
_cell_length_b   6.07518442
_cell_length_c   9.20050337
_cell_angle_alpha   90.00637902
_cell_angle_beta   90.65745577
_cell_angle_gamma   119.79645584
_symmetry_Int_Tables_number   1
_chemical_formula_structural   Mn3Co2Te3O16
_chemical_formula_sum   'Mn3 Co2 Te3 O16'
_cell_volume   299.17026838
_cell_formula_units_Z   1
loop_
 _symmetry_equiv_pos_site_id
 _symmetry_equiv_pos_as_xyz
  1  'x, y, z'
loop_
 _atom_site_type_symbol
 _atom_site_label
 _atom_site_symmetry_multiplicity
 _atom_site_fract_x
 _atom_site_fract_y
 _atom_site_fract_z
 _atom_site_occupancy
  Mn  Mn0  1  0.663846  0.831996  0.213459  1
  Mn  Mn1  1  0.828688  0.663918  0.710590  1
  Mn  Mn2  1  0.828768  0.164471  0.710726  1
  Co  Co3  1  0.349857  0.674525  0.515007  1
  Co  Co4  1  0.691732  0.345959  0.982004  1
  Te  Te5  1  0.165514  0.830653  0.212647  1
  Te  Te6  1  0.165487  0.334733  0.212536  1
  Te  Te7  1  0.332441  0.166159  0.713035  1
  O  O8  1  0.167468  0.844716  0.603923  1
  O  O9  1  0.035452  0.516923  0.335983  1
  O  O10  1  0.292557  0.646358  0.087342  1
  O  O11  1  0.032013  0.015889  0.329097  1
  O  O12  1  0.012147  0.001675  0.819272  1
  O  O13  1  0.171127  0.322820  0.604498  1
  O  O14  1  0.464579  0.956192  0.325629  1
  O  O15  1  0.464838  0.509190  0.325359  1
  O  O16  1  0.318317  0.159657  0.099436  1
  O  O17  1  0.686204  0.842794  0.608025  1
  O  O18  1  0.518490  0.478083  0.834545  1
  O  O19  1  0.512643  0.040170  0.835006  1
  O  O20  1  0.647172  0.328663  0.597684  1
  O  O21  1  0.851639  0.681039  0.109296  1
  O  O22  1  0.947583  0.474401  0.821589  1
  O  O23  1  0.851439  0.169216  0.109034  1
