# generated using pymatgen
data_NbV3O8
_symmetry_space_group_name_H-M   'P 1'
_cell_length_a   6.07009578
_cell_length_b   5.92062487
_cell_length_c   9.33194513
_cell_angle_alpha   89.95132693
_cell_angle_beta   90.02373741
_cell_angle_gamma   119.18872262
_symmetry_Int_Tables_number   1
_chemical_formula_structural   NbV3O8
_chemical_formula_sum   'Nb2 V6 O16'
_cell_volume   292.79142225
_cell_formula_units_Z   2
loop_
 _symmetry_equiv_pos_site_id
 _symmetry_equiv_pos_as_xyz
  1  'x, y, z'
loop_
 _atom_site_type_symbol
 _atom_site_label
 _atom_site_symmetry_multiplicity
 _atom_site_fract_x
 _atom_site_fract_y
 _atom_site_fract_z
 _atom_site_occupancy
  Nb  Nb0  1  0.342177  0.669464  0.498740  1
  Nb  Nb1  1  0.657823  0.327286  0.998740  1
  V  V2  1  0.166201  0.826603  0.218640  1
  V  V3  1  0.168429  0.341586  0.216051  1
  V  V4  1  0.661341  0.830138  0.207803  1
  V  V5  1  0.338659  0.168797  0.707803  1
  V  V6  1  0.833799  0.660400  0.718640  1
  V  V7  1  0.831571  0.173157  0.716051  1
  O  O8  1  0.169129  0.827202  0.600613  1
  O  O9  1  0.044167  0.524711  0.336994  1
  O  O10  1  0.305744  0.648574  0.106490  1
  O  O11  1  0.016387  0.012516  0.303498  1
  O  O12  1  0.983613  0.996130  0.803498  1
  O  O13  1  0.169789  0.340699  0.599777  1
  O  O14  1  0.464480  0.950802  0.334925  1
  O  O15  1  0.466151  0.516510  0.335532  1
  O  O16  1  0.339878  0.168231  0.098801  1
  O  O17  1  0.660122  0.828354  0.598801  1
  O  O18  1  0.535520  0.486322  0.834925  1
  O  O19  1  0.533849  0.050359  0.835532  1
  O  O20  1  0.694256  0.342830  0.606490  1
  O  O21  1  0.830871  0.658074  0.100613  1
  O  O22  1  0.955833  0.480544  0.836993  1
  O  O23  1  0.830211  0.170911  0.099777  1
