# generated using pymatgen
data_LiCr(CoO3)2
_symmetry_space_group_name_H-M   'P 1'
_cell_length_a   6.50663175
_cell_length_b   2.88692479
_cell_length_c   5.97076243
_cell_angle_alpha   90.03350948
_cell_angle_beta   104.83544443
_cell_angle_gamma   102.78355400
_symmetry_Int_Tables_number   1
_chemical_formula_structural   LiCr(CoO3)2
_chemical_formula_sum   'Li1 Cr1 Co2 O6'
_cell_volume   105.53462457
_cell_formula_units_Z   1
loop_
 _symmetry_equiv_pos_site_id
 _symmetry_equiv_pos_as_xyz
  1  'x, y, z'
loop_
 _atom_site_type_symbol
 _atom_site_label
 _atom_site_symmetry_multiplicity
 _atom_site_fract_x
 _atom_site_fract_y
 _atom_site_fract_z
 _atom_site_occupancy
  Li  Li0  1  0.333296  0.666664  0.833337  1
  Cr  Cr1  1  0.333532  0.666712  0.333217  1
  Co  Co2  1  0.676413  0.338146  0.662278  1
  Co  Co3  1  0.990163  0.995146  0.004539  1
  O  O4  1  0.008954  0.504864  0.211023  1
  O  O5  1  0.366022  0.183225  0.574977  1
  O  O6  1  0.300619  0.150115  0.091611  1
  O  O7  1  0.683726  0.842107  0.876325  1
  O  O8  1  0.657789  0.828521  0.455671  1
  O  O9  1  0.982821  0.491166  0.790356  1
