# generated using pymatgen
data_MnV5O12
_symmetry_space_group_name_H-M   'P 1'
_cell_length_a   6.89428855
_cell_length_b   6.89428817
_cell_length_c   5.88416794
_cell_angle_alpha   74.92028491
_cell_angle_beta   105.07971727
_cell_angle_gamma   95.61103930
_symmetry_Int_Tables_number   1
_chemical_formula_structural   MnV5O12
_chemical_formula_sum   'Mn1 V5 O12'
_cell_volume   260.61564573
_cell_formula_units_Z   1
loop_
 _symmetry_equiv_pos_site_id
 _symmetry_equiv_pos_as_xyz
  1  'x, y, z'
loop_
 _atom_site_type_symbol
 _atom_site_label
 _atom_site_symmetry_multiplicity
 _atom_site_fract_x
 _atom_site_fract_y
 _atom_site_fract_z
 _atom_site_occupancy
  Mn  Mn0  1  0.911870  0.911870  0.250000  1
  V  V1  1  0.085687  0.085687  0.750000  1
  V  V2  1  0.208848  0.609591  0.767980  1
  V  V3  1  0.388126  0.793297  0.261634  1
  V  V4  1  0.609591  0.208848  0.732020  1
  V  V5  1  0.793297  0.388126  0.238367  1
  O  O6  1  0.038947  0.802318  0.653655  1
  O  O7  1  0.098222  0.378133  0.786508  1
  O  O8  1  0.193320  0.960029  0.129905  1
  O  O9  1  0.362121  0.649015  0.554159  1
  O  O10  1  0.378133  0.098222  0.713492  1
  O  O11  1  0.361806  0.631921  0.059410  1
  O  O12  1  0.649015  0.362121  0.945841  1
  O  O13  1  0.613927  0.912821  0.287134  1
  O  O14  1  0.631921  0.361806  0.440590  1
  O  O15  1  0.802318  0.038947  0.846345  1
  O  O16  1  0.912821  0.613927  0.212866  1
  O  O17  1  0.960029  0.193320  0.370095  1
