# generated using pymatgen
data_Fe3(SnS4)2
_symmetry_space_group_name_H-M   'P 1'
_cell_length_a   7.15021938
_cell_length_b   7.15021938
_cell_length_c   7.15021938
_cell_angle_alpha   62.07195887
_cell_angle_beta   89.73486534
_cell_angle_gamma   121.80367194
_symmetry_Int_Tables_number   1
_chemical_formula_structural   Fe3(SnS4)2
_chemical_formula_sum   'Fe3 Sn2 S8'
_cell_volume   258.64237461
_cell_formula_units_Z   1
loop_
 _symmetry_equiv_pos_site_id
 _symmetry_equiv_pos_as_xyz
  1  'x, y, z'
loop_
 _atom_site_type_symbol
 _atom_site_label
 _atom_site_symmetry_multiplicity
 _atom_site_fract_x
 _atom_site_fract_y
 _atom_site_fract_z
 _atom_site_occupancy
  Fe  Fe0  1  0.632565  0.262567  0.630002  1
  Fe  Fe1  1  0.254885  0.500000  0.245115  1
  Fe  Fe2  1  0.107431  0.737433  0.630002  1
  Sn  Sn3  1  0.626058  0.261406  0.112535  1
  Sn  Sn4  1  0.626058  0.738594  0.635349  1
  S  S5  1  0.861705  0.257266  0.395562  1
  S  S6  1  0.371045  0.219863  0.409091  1
  S  S7  1  0.878020  0.293051  0.828929  1
  S  S8  1  0.878020  0.706949  0.415033  1
  S  S9  1  0.384148  0.236149  0.852002  1
  S  S10  1  0.911850  0.763851  0.852002  1
  S  S11  1  0.347172  0.742734  0.395562  1
  S  S12  1  0.371045  0.780137  0.848818  1
