# generated using pymatgen
data_Li2Cu2(SO4)3
_symmetry_space_group_name_H-M   'P 1'
_cell_length_a   7.91179354
_cell_length_b   7.91179354
_cell_length_c   9.24374068
_cell_angle_alpha   64.97664632
_cell_angle_beta   115.02335368
_cell_angle_gamma   116.04656902
_symmetry_Int_Tables_number   1
_chemical_formula_structural   Li2Cu2(SO4)3
_chemical_formula_sum   'Li4 Cu4 S6 O24'
_cell_volume   450.61509456
_cell_formula_units_Z   2
loop_
 _symmetry_equiv_pos_site_id
 _symmetry_equiv_pos_as_xyz
  1  'x, y, z'
loop_
 _atom_site_type_symbol
 _atom_site_label
 _atom_site_symmetry_multiplicity
 _atom_site_fract_x
 _atom_site_fract_y
 _atom_site_fract_z
 _atom_site_occupancy
  Li  Li0  1  0.325446  0.859601  0.549577  1
  Li  Li1  1  0.140399  0.674554  0.049577  1
  Li  Li2  1  0.859601  0.325446  0.950423  1
  Li  Li3  1  0.674554  0.140399  0.450423  1
  Cu  Cu4  1  0.636728  0.869185  0.976667  1
  Cu  Cu5  1  0.130815  0.363272  0.476667  1
  Cu  Cu6  1  0.869185  0.636728  0.523333  1
  Cu  Cu7  1  0.363272  0.130815  0.023333  1
  S  S8  1  0.247924  0.542884  0.826586  1
  S  S9  1  0.457116  0.752076  0.326586  1
  S  S10  1  0.951695  0.951695  0.750000  1
  S  S11  1  0.048305  0.048305  0.250000  1
  S  S12  1  0.542884  0.247924  0.673414  1
  S  S13  1  0.752076  0.457116  0.173414  1
  O  O14  1  0.146298  0.961255  0.886147  1
  O  O15  1  0.038745  0.853702  0.386147  1
  O  O16  1  0.131342  0.495254  0.935448  1
  O  O17  1  0.394896  0.746229  0.815606  1
  O  O18  1  0.125334  0.559610  0.646502  1
  O  O19  1  0.504746  0.868658  0.435448  1
  O  O20  1  0.795648  0.915193  0.814665  1
  O  O21  1  0.346440  0.397517  0.878929  1
  O  O22  1  0.253771  0.605104  0.315606  1
  O  O23  1  0.440390  0.874666  0.146502  1
  O  O24  1  0.084807  0.204352  0.314665  1
  O  O25  1  0.397517  0.346440  0.621071  1
  O  O26  1  0.602483  0.653560  0.378928  1
  O  O27  1  0.915193  0.795648  0.685335  1
  O  O28  1  0.559610  0.125334  0.853498  1
  O  O29  1  0.746229  0.394896  0.684394  1
  O  O30  1  0.653560  0.602483  0.121072  1
  O  O31  1  0.204352  0.084807  0.185335  1
  O  O32  1  0.495254  0.131342  0.564552  1
  O  O33  1  0.874666  0.440390  0.353498  1
  O  O34  1  0.605104  0.253771  0.184394  1
  O  O35  1  0.868658  0.504746  0.064552  1
  O  O36  1  0.961255  0.146298  0.613853  1
  O  O37  1  0.853702  0.038745  0.113853  1
