# generated using pymatgen
data_Li7CrFe3(PO4)6
_symmetry_space_group_name_H-M   'P 1'
_cell_length_a   8.83026273
_cell_length_b   8.83212633
_cell_length_c   8.79004490
_cell_angle_alpha   59.78653097
_cell_angle_beta   59.78616373
_cell_angle_gamma   59.99360619
_symmetry_Int_Tables_number   1
_chemical_formula_structural   Li7CrFe3(PO4)6
_chemical_formula_sum   'Li7 Cr1 Fe3 P6 O24'
_cell_volume   483.15232396
_cell_formula_units_Z   1
loop_
 _symmetry_equiv_pos_site_id
 _symmetry_equiv_pos_as_xyz
  1  'x, y, z'
loop_
 _atom_site_type_symbol
 _atom_site_label
 _atom_site_symmetry_multiplicity
 _atom_site_fract_x
 _atom_site_fract_y
 _atom_site_fract_z
 _atom_site_occupancy
  Li  Li0  1  0.163823  0.706166  0.784080  1
  Li  Li1  1  0.346358  0.167722  0.782974  1
  Li  Li2  1  0.707654  0.344635  0.783320  1
  Li  Li3  1  0.520126  0.520653  0.438522  1
  Li  Li4  1  0.197446  0.755245  0.107589  1
  Li  Li5  1  0.753630  0.940707  0.107610  1
  Li  Li6  1  0.940327  0.198197  0.107305  1
  Cr  Cr7  1  0.855322  0.855092  0.434062  1
  Fe  Fe8  1  0.348793  0.348915  0.955166  1
  Fe  Fe9  1  0.146117  0.145673  0.561915  1
  Fe  Fe10  1  0.646349  0.646905  0.059794  1
  P  P11  1  0.042705  0.461643  0.746010  1
  P  P12  1  0.461534  0.748983  0.746602  1
  P  P13  1  0.749534  0.042530  0.746065  1
  P  P14  1  0.247853  0.953577  0.251805  1
  P  P15  1  0.547208  0.247599  0.251866  1
  P  P16  1  0.952815  0.546972  0.252165  1
  O  O17  1  0.092749  0.264421  0.746169  1
  O  O18  1  0.999003  0.621608  0.576282  1
  O  O19  1  0.214523  0.461630  0.753035  1
  O  O20  1  0.471189  0.723604  0.932171  1
  O  O21  1  0.264539  0.896132  0.745887  1
  O  O22  1  0.461441  0.569925  0.754463  1
  O  O23  1  0.722770  0.873209  0.932161  1
  O  O24  1  0.571342  0.214907  0.752615  1
  O  O25  1  0.193633  0.994277  0.425946  1
  O  O26  1  0.084188  0.929733  0.248326  1
  O  O27  1  0.872791  0.471943  0.931694  1
  O  O28  1  0.385773  0.193472  0.425275  1
  O  O29  1  0.622367  0.801218  0.576990  1
  O  O30  1  0.115516  0.535174  0.068191  1
  O  O31  1  0.897345  0.091724  0.745956  1
  O  O32  1  0.802463  0.998143  0.577064  1
  O  O33  1  0.415707  0.770938  0.250253  1
  O  O34  1  0.281283  0.116655  0.068218  1
  O  O35  1  0.562248  0.416151  0.250293  1
  O  O36  1  0.738195  0.084281  0.249380  1
  O  O37  1  0.536695  0.279473  0.067757  1
  O  O38  1  0.994234  0.385793  0.425983  1
  O  O39  1  0.770298  0.562805  0.250728  1
  O  O40  1  0.928642  0.738107  0.248715  1
