# generated using pymatgen
data_LiLa4CoO8
_symmetry_space_group_name_H-M   'P 1'
_cell_length_a   5.34207099
_cell_length_b   13.49705347
_cell_length_c   5.34207099
_cell_angle_alpha   78.58595239
_cell_angle_beta   90.00000000
_cell_angle_gamma   78.58595239
_symmetry_Int_Tables_number   1
_chemical_formula_structural   LiLa4CoO8
_chemical_formula_sum   'Li2 La8 Co2 O16'
_cell_volume   369.78280750
_cell_formula_units_Z   2
loop_
 _symmetry_equiv_pos_site_id
 _symmetry_equiv_pos_as_xyz
  1  'x, y, z'
loop_
 _atom_site_type_symbol
 _atom_site_label
 _atom_site_symmetry_multiplicity
 _atom_site_fract_x
 _atom_site_fract_y
 _atom_site_fract_z
 _atom_site_occupancy
  Li  Li0  1  0.000000  0.000000  0.000000  1
  Li  Li1  1  0.750000  0.500000  0.250000  1
  La  La2  1  0.318412  0.363176  0.318412  1
  La  La3  1  0.180589  0.638823  0.180589  1
  La  La4  1  0.431588  0.136824  0.931588  1
  La  La5  1  0.068412  0.863176  0.568412  1
  La  La6  1  0.569411  0.861177  0.069411  1
  La  La7  1  0.930589  0.138823  0.430589  1
  La  La8  1  0.819411  0.361177  0.819411  1
  La  La9  1  0.681588  0.636824  0.681588  1
  Co  Co10  1  0.500000  0.000000  0.500000  1
  Co  Co11  1  0.250000  0.500000  0.750000  1
  O  O12  1  0.005170  0.500000  0.994830  1
  O  O13  1  0.255170  0.000000  0.255170  1
  O  O14  1  0.744830  0.000000  0.255170  1
  O  O15  1  0.090404  0.819193  0.090404  1
  O  O16  1  0.409991  0.180019  0.409991  1
  O  O17  1  0.005170  0.500000  0.505170  1
  O  O18  1  0.255170  0.000000  0.744830  1
  O  O19  1  0.494830  0.500000  0.994830  1
  O  O20  1  0.840404  0.319193  0.340404  1
  O  O21  1  0.744830  0.000000  0.744830  1
  O  O22  1  0.340009  0.319981  0.840009  1
  O  O23  1  0.494830  0.500000  0.505170  1
  O  O24  1  0.659596  0.680807  0.159596  1
  O  O25  1  0.159991  0.680019  0.659991  1
  O  O26  1  0.590009  0.819981  0.590009  1
  O  O27  1  0.909596  0.180807  0.909596  1
