# generated using pymatgen
data_VF5
_symmetry_space_group_name_H-M   'P 1'
_cell_length_a   7.73225218
_cell_length_b   5.18373260
_cell_length_c   10.23964619
_cell_angle_alpha   89.51330241
_cell_angle_beta   146.17867576
_cell_angle_gamma   109.96167921
_symmetry_Int_Tables_number   1
_chemical_formula_structural   VF5
_chemical_formula_sum   'V2 F10'
_cell_volume   182.63069420
_cell_formula_units_Z   2
loop_
 _symmetry_equiv_pos_site_id
 _symmetry_equiv_pos_as_xyz
  1  'x, y, z'
loop_
 _atom_site_type_symbol
 _atom_site_label
 _atom_site_symmetry_multiplicity
 _atom_site_fract_x
 _atom_site_fract_y
 _atom_site_fract_z
 _atom_site_occupancy
  V  V0  1  0.005012  0.505120  0.503424  1
  V  V1  1  0.004526  0.995418  0.003433  1
  F  F2  1  0.075388  0.383387  0.699639  1
  F  F3  1  0.241106  0.901908  0.710192  1
  F  F4  1  0.772366  0.111682  0.295042  1
  F  F5  1  0.075210  0.181583  0.199893  1
  F  F6  1  0.500010  0.616915  0.750809  1
  F  F7  1  0.921388  0.626942  0.301278  1
  F  F8  1  0.236076  0.827602  0.207996  1
  F  F9  1  0.774400  0.160893  0.797577  1
  F  F10  1  0.502050  0.378439  0.253491  1
  F  F11  1  0.925652  0.799330  0.803419  1
