# generated using pymatgen
data_Li4Fe3Co5O16
_symmetry_space_group_name_H-M   'P 1'
_cell_length_a   5.16082989
_cell_length_b   2.93106988
_cell_length_c   19.18296588
_cell_angle_alpha   90.00000000
_cell_angle_beta   86.02151128
_cell_angle_gamma   90.00000000
_symmetry_Int_Tables_number   1
_chemical_formula_structural   Li4Fe3Co5O16
_chemical_formula_sum   'Li4 Fe3 Co5 O16'
_cell_volume   289.47671262
_cell_formula_units_Z   1
loop_
 _symmetry_equiv_pos_site_id
 _symmetry_equiv_pos_as_xyz
  1  'x, y, z'
loop_
 _atom_site_type_symbol
 _atom_site_label
 _atom_site_symmetry_multiplicity
 _atom_site_fract_x
 _atom_site_fract_y
 _atom_site_fract_z
 _atom_site_occupancy
  Li  Li0  1  0.999794  0.000000  0.996487  1
  Li  Li1  1  0.250000  0.000000  0.250000  1
  Li  Li2  1  0.500206  0.000000  0.503513  1
  Li  Li3  1  0.750000  0.000000  0.750000  1
  Fe  Fe4  1  0.626464  0.000000  0.121289  1
  Fe  Fe5  1  0.750000  0.500000  0.250000  1
  Fe  Fe6  1  0.873536  0.000000  0.378711  1
  Co  Co7  1  0.002615  0.500000  0.504341  1
  Co  Co8  1  0.124582  0.000000  0.627186  1
  Co  Co9  1  0.250000  0.500000  0.750000  1
  Co  Co10  1  0.375417  0.000000  0.872814  1
  Co  Co11  1  0.497385  0.500000  0.995659  1
  O  O12  1  0.029272  0.500000  0.314125  1
  O  O13  1  0.149467  0.000000  0.451596  1
  O  O14  1  0.104056  0.000000  0.803293  1
  O  O15  1  0.350533  0.000000  0.048404  1
  O  O16  1  0.273852  0.500000  0.563986  1
  O  O17  1  0.226148  0.500000  0.936014  1
  O  O18  1  0.470728  0.500000  0.185875  1
  O  O19  1  0.395944  0.000000  0.696707  1
  O  O20  1  0.591307  0.000000  0.308401  1
  O  O21  1  0.524326  0.500000  0.808693  1
  O  O22  1  0.771165  0.500000  0.055394  1
  O  O23  1  0.728835  0.500000  0.444606  1
  O  O24  1  0.643758  0.000000  0.942042  1
  O  O25  1  0.908693  0.000000  0.191599  1
  O  O26  1  0.856242  0.000000  0.557958  1
  O  O27  1  0.975674  0.500000  0.691307  1
