# generated using pymatgen
data_LiV2(CO4)2
_symmetry_space_group_name_H-M   'P 1'
_cell_length_a   6.28782930
_cell_length_b   9.46930795
_cell_length_c   9.41678358
_cell_angle_alpha   90.00000000
_cell_angle_beta   90.87985390
_cell_angle_gamma   90.00000000
_symmetry_Int_Tables_number   1
_chemical_formula_structural   LiV2(CO4)2
_chemical_formula_sum   'Li4 V8 C8 O32'
_cell_volume   560.62229364
_cell_formula_units_Z   4
loop_
 _symmetry_equiv_pos_site_id
 _symmetry_equiv_pos_as_xyz
  1  'x, y, z'
loop_
 _atom_site_type_symbol
 _atom_site_label
 _atom_site_symmetry_multiplicity
 _atom_site_fract_x
 _atom_site_fract_y
 _atom_site_fract_z
 _atom_site_occupancy
  Li  Li0  1  0.115321  0.312381  0.902374  1
  Li  Li1  1  0.384679  0.687619  0.097626  1
  Li  Li2  1  0.615321  0.187619  0.402374  1
  Li  Li3  1  0.884679  0.812381  0.597626  1
  V  V4  1  0.121323  0.555458  0.365536  1
  V  V5  1  0.121479  0.930775  0.887395  1
  V  V6  1  0.378521  0.069225  0.112605  1
  V  V7  1  0.378677  0.444542  0.634464  1
  V  V8  1  0.621479  0.569225  0.387395  1
  V  V9  1  0.621323  0.944542  0.865536  1
  V  V10  1  0.878677  0.055458  0.134464  1
  V  V11  1  0.878521  0.430775  0.612605  1
  C  C12  1  0.128408  0.862626  0.331738  1
  C  C13  1  0.119800  0.634993  0.838650  1
  C  C14  1  0.380200  0.365007  0.161350  1
  C  C15  1  0.371592  0.137374  0.668262  1
  C  C16  1  0.619800  0.865007  0.338650  1
  C  C17  1  0.628408  0.637374  0.831738  1
  C  C18  1  0.871592  0.362626  0.168262  1
  C  C19  1  0.880200  0.134993  0.661350  1
  O  O20  1  0.155639  0.741032  0.267303  1
  O  O21  1  0.135128  0.976144  0.240481  1
  O  O22  1  0.107393  0.755425  0.767477  1
  O  O23  1  0.135127  0.111266  0.008356  1
  O  O24  1  0.111373  0.515806  0.757492  1
  O  O25  1  0.118398  0.395677  0.511532  1
  O  O26  1  0.098813  0.879457  0.458752  1
  O  O27  1  0.141238  0.628135  0.968288  1
  O  O28  1  0.358762  0.371865  0.031713  1
  O  O29  1  0.401187  0.120543  0.541248  1
  O  O30  1  0.381602  0.604323  0.488468  1
  O  O31  1  0.388627  0.484194  0.242508  1
  O  O32  1  0.364873  0.888734  0.991644  1
  O  O33  1  0.392607  0.244575  0.232523  1
  O  O34  1  0.364872  0.023856  0.759519  1
  O  O35  1  0.344361  0.258968  0.732697  1
  O  O36  1  0.607393  0.744575  0.267477  1
  O  O37  1  0.611373  0.984194  0.257492  1
  O  O38  1  0.655639  0.758968  0.767303  1
  O  O39  1  0.618398  0.104323  0.011532  1
  O  O40  1  0.635128  0.523856  0.740481  1
  O  O41  1  0.635127  0.388734  0.508356  1
  O  O42  1  0.641238  0.871865  0.468287  1
  O  O43  1  0.598813  0.620543  0.958752  1
  O  O44  1  0.901187  0.379457  0.041248  1
  O  O45  1  0.858762  0.128135  0.531712  1
  O  O46  1  0.864873  0.611266  0.491644  1
  O  O47  1  0.864872  0.476144  0.259519  1
  O  O48  1  0.881602  0.895677  0.988468  1
  O  O49  1  0.844361  0.241032  0.232697  1
  O  O50  1  0.888627  0.015806  0.742508  1
  O  O51  1  0.892607  0.255425  0.732523  1
