# generated using pymatgen
data_MnNi(PO4)2
_symmetry_space_group_name_H-M   'P 1'
_cell_length_a   8.41702446
_cell_length_b   8.51726226
_cell_length_c   8.51726201
_cell_angle_alpha   59.99999391
_cell_angle_beta   59.60526389
_cell_angle_gamma   59.60526864
_symmetry_Int_Tables_number   1
_chemical_formula_structural   MnNi(PO4)2
_chemical_formula_sum   'Mn3 Ni3 P6 O24'
_cell_volume   429.16717074
_cell_formula_units_Z   3
loop_
 _symmetry_equiv_pos_site_id
 _symmetry_equiv_pos_as_xyz
  1  'x, y, z'
loop_
 _atom_site_type_symbol
 _atom_site_label
 _atom_site_symmetry_multiplicity
 _atom_site_fract_x
 _atom_site_fract_y
 _atom_site_fract_z
 _atom_site_occupancy
  Mn  Mn0  1  0.074993  0.641669  0.641669  1
  Mn  Mn1  1  0.423480  0.858840  0.858840  1
  Mn  Mn2  1  0.925135  0.358289  0.358289  1
  Ni  Ni3  1  0.991504  0.002832  0.002832  1
  Ni  Ni4  1  0.576479  0.141173  0.141173  1
  Ni  Ni5  1  0.498188  0.500604  0.500604  1
  P  P6  1  0.251220  0.248138  0.542022  1
  P  P7  1  0.251220  0.958621  0.248138  1
  P  P8  1  0.251220  0.542022  0.958621  1
  P  P9  1  0.753052  0.458388  0.039252  1
  P  P10  1  0.753052  0.039252  0.749308  1
  P  P11  1  0.753052  0.749308  0.458388  1
  O  O12  1  0.060845  0.120702  0.308361  1
  O  O13  1  0.060845  0.510092  0.120702  1
  O  O14  1  0.060845  0.308361  0.510092  1
  O  O15  1  0.224657  0.086024  0.746171  1
  O  O16  1  0.438563  0.188267  0.388819  1
  O  O17  1  0.265925  0.414846  0.562419  1
  O  O18  1  0.224657  0.943148  0.086024  1
  O  O19  1  0.265925  0.756810  0.414846  1
  O  O20  1  0.562556  0.620549  0.007558  1
  O  O21  1  0.265925  0.562419  0.756810  1
  O  O22  1  0.778733  0.260395  0.056509  1
  O  O23  1  0.562556  0.007558  0.809337  1
  O  O24  1  0.438563  0.984351  0.188267  1
  O  O25  1  0.224657  0.746171  0.943148  1
  O  O26  1  0.729035  0.451758  0.239536  1
  O  O27  1  0.438563  0.388819  0.984351  1
  O  O28  1  0.729035  0.239536  0.579671  1
  O  O29  1  0.778733  0.056509  0.904363  1
  O  O30  1  0.729035  0.579671  0.451758  1
  O  O31  1  0.562556  0.809337  0.620549  1
  O  O32  1  0.778733  0.904363  0.260395  1
  O  O33  1  0.938822  0.681753  0.499488  1
  O  O34  1  0.938822  0.499488  0.879937  1
  O  O35  1  0.938822  0.879937  0.681753  1
