# generated using pymatgen
data_LiP4WO12
_symmetry_space_group_name_H-M   'P 1'
_cell_length_a   13.14141984
_cell_length_b   8.37665753
_cell_length_c   9.67230166
_cell_angle_alpha   90.00000000
_cell_angle_beta   90.00000000
_cell_angle_gamma   90.00000000
_symmetry_Int_Tables_number   1
_chemical_formula_structural   LiP4WO12
_chemical_formula_sum   'Li4 P16 W4 O48'
_cell_volume   1064.73831677
_cell_formula_units_Z   4
loop_
 _symmetry_equiv_pos_site_id
 _symmetry_equiv_pos_as_xyz
  1  'x, y, z'
loop_
 _atom_site_type_symbol
 _atom_site_label
 _atom_site_symmetry_multiplicity
 _atom_site_fract_x
 _atom_site_fract_y
 _atom_site_fract_z
 _atom_site_occupancy
  Li  Li0  1  0.000000  0.992474  0.750000  1
  Li  Li1  1  0.000000  0.007526  0.250000  1
  Li  Li2  1  0.500000  0.507526  0.250000  1
  Li  Li3  1  0.500000  0.492474  0.750000  1
  P  P4  1  0.138401  0.176450  0.503273  1
  P  P5  1  0.138401  0.823550  0.003273  1
  P  P6  1  0.154174  0.536602  0.509642  1
  P  P7  1  0.154174  0.463398  0.009642  1
  P  P8  1  0.345826  0.036602  0.509642  1
  P  P9  1  0.345826  0.963398  0.009642  1
  P  P10  1  0.361599  0.323550  0.003273  1
  P  P11  1  0.361599  0.676450  0.503273  1
  P  P12  1  0.638401  0.323550  0.496727  1
  P  P13  1  0.638401  0.676450  0.996727  1
  P  P14  1  0.654174  0.036602  0.990358  1
  P  P15  1  0.654174  0.963398  0.490358  1
  P  P16  1  0.845826  0.463398  0.490358  1
  P  P17  1  0.845826  0.536602  0.990358  1
  P  P18  1  0.861599  0.176450  0.996727  1
  P  P19  1  0.861599  0.823550  0.496727  1
  W  W20  1  0.000000  0.629805  0.250000  1
  W  W21  1  0.000000  0.370195  0.750000  1
  W  W22  1  0.500000  0.129805  0.250000  1
  W  W23  1  0.500000  0.870195  0.750000  1
  O  O24  1  0.066507  0.182041  0.626704  1
  O  O25  1  0.066507  0.817959  0.126704  1
  O  O26  1  0.076036  0.544071  0.623385  1
  O  O27  1  0.076036  0.455929  0.123385  1
  O  O28  1  0.104424  0.095065  0.375856  1
  O  O29  1  0.104424  0.904935  0.875856  1
  O  O30  1  0.131581  0.368209  0.881717  1
  O  O31  1  0.131581  0.631791  0.381717  1
  O  O32  1  0.178070  0.354853  0.467831  1
  O  O33  1  0.178070  0.645147  0.967831  1
  O  O34  1  0.240033  0.098004  0.570517  1
  O  O35  1  0.240033  0.901996  0.070517  1
  O  O36  1  0.259967  0.401996  0.070517  1
  O  O37  1  0.259967  0.598004  0.570517  1
  O  O38  1  0.321930  0.145147  0.967831  1
  O  O39  1  0.321930  0.854853  0.467831  1
  O  O40  1  0.368420  0.131791  0.381717  1
  O  O41  1  0.368420  0.868209  0.881717  1
  O  O42  1  0.395576  0.595065  0.375856  1
  O  O43  1  0.395576  0.404935  0.875856  1
  O  O44  1  0.423964  0.044071  0.623385  1
  O  O45  1  0.423964  0.955929  0.123385  1
  O  O46  1  0.433493  0.682041  0.626704  1
  O  O47  1  0.433493  0.317959  0.126704  1
  O  O48  1  0.566507  0.317959  0.373296  1
  O  O49  1  0.566507  0.682041  0.873296  1
  O  O50  1  0.576036  0.044071  0.876615  1
  O  O51  1  0.576036  0.955929  0.376615  1
  O  O52  1  0.604424  0.404935  0.624144  1
  O  O53  1  0.604424  0.595065  0.124144  1
  O  O54  1  0.631581  0.131791  0.118283  1
  O  O55  1  0.631581  0.868209  0.618283  1
  O  O56  1  0.678070  0.145147  0.532169  1
  O  O57  1  0.678070  0.854853  0.032169  1
  O  O58  1  0.740033  0.401996  0.429483  1
  O  O59  1  0.740033  0.598004  0.929483  1
  O  O60  1  0.759967  0.098004  0.929483  1
  O  O61  1  0.759967  0.901996  0.429483  1
  O  O62  1  0.821930  0.354853  0.032169  1
  O  O63  1  0.821930  0.645147  0.532169  1
  O  O64  1  0.868419  0.368209  0.618283  1
  O  O65  1  0.868419  0.631791  0.118283  1
  O  O66  1  0.895576  0.095065  0.124144  1
  O  O67  1  0.895576  0.904935  0.624144  1
  O  O68  1  0.923964  0.455929  0.376615  1
  O  O69  1  0.923964  0.544071  0.876615  1
  O  O70  1  0.933493  0.182041  0.873296  1
  O  O71  1  0.933493  0.817959  0.373296  1
