# generated using pymatgen
data_LiFeCSO7
_symmetry_space_group_name_H-M   'P 1'
_cell_length_a   8.85202781
_cell_length_b   6.44510870
_cell_length_c   5.24079949
_cell_angle_alpha   90.00000000
_cell_angle_beta   86.35104310
_cell_angle_gamma   90.00000000
_symmetry_Int_Tables_number   1
_chemical_formula_structural   LiFeCSO7
_chemical_formula_sum   'Li2 Fe2 C2 S2 O14'
_cell_volume   298.39340969
_cell_formula_units_Z   2
loop_
 _symmetry_equiv_pos_site_id
 _symmetry_equiv_pos_as_xyz
  1  'x, y, z'
loop_
 _atom_site_type_symbol
 _atom_site_label
 _atom_site_symmetry_multiplicity
 _atom_site_fract_x
 _atom_site_fract_y
 _atom_site_fract_z
 _atom_site_occupancy
  Li  Li0  1  0.164534  0.538455  0.229687  1
  Li  Li1  1  0.835466  0.038455  0.770313  1
  Fe  Fe2  1  0.340959  0.749823  0.783405  1
  Fe  Fe3  1  0.659041  0.249823  0.216595  1
  C  C4  1  0.068381  0.743176  0.728326  1
  C  C5  1  0.931619  0.243176  0.271674  1
  S  S6  1  0.430002  0.246205  0.729401  1
  S  S7  1  0.569998  0.746205  0.270599  1
  O  O8  1  0.067190  0.277407  0.303998  1
  O  O9  1  0.128510  0.738050  0.954666  1
  O  O10  1  0.175133  0.717903  0.539008  1
  O  O11  1  0.334491  0.062350  0.790192  1
  O  O12  1  0.341857  0.429661  0.820747  1
  O  O13  1  0.423741  0.734337  0.144934  1
  O  O14  1  0.465181  0.260483  0.446438  1
  O  O15  1  0.534819  0.760483  0.553562  1
  O  O16  1  0.576259  0.234337  0.855066  1
  O  O17  1  0.658143  0.929661  0.179253  1
  O  O18  1  0.665509  0.562350  0.209808  1
  O  O19  1  0.824867  0.217903  0.460992  1
  O  O20  1  0.871490  0.238050  0.045334  1
  O  O21  1  0.932810  0.777407  0.696002  1
