# generated using pymatgen
data_Li8TiNi7O16
_symmetry_space_group_name_H-M   'P 1'
_cell_length_a   6.47883311
_cell_length_b   6.51635262
_cell_length_c   7.70438104
_cell_angle_alpha   104.36208307
_cell_angle_beta   65.20247632
_cell_angle_gamma   107.91282460
_symmetry_Int_Tables_number   1
_chemical_formula_structural   Li8TiNi7O16
_chemical_formula_sum   'Li8 Ti1 Ni7 O16'
_cell_volume   278.28079965
_cell_formula_units_Z   1
loop_
 _symmetry_equiv_pos_site_id
 _symmetry_equiv_pos_as_xyz
  1  'x, y, z'
loop_
 _atom_site_type_symbol
 _atom_site_label
 _atom_site_symmetry_multiplicity
 _atom_site_fract_x
 _atom_site_fract_y
 _atom_site_fract_z
 _atom_site_occupancy
  Li  Li0  1  0.676786  0.180159  0.931287  1
  Li  Li1  1  0.812302  0.311992  0.555699  1
  Li  Li2  1  0.057133  0.550844  0.809938  1
  Li  Li3  1  0.440340  0.929516  0.685902  1
  Li  Li4  1  0.557417  0.069838  0.315905  1
  Li  Li5  1  0.934880  0.447497  0.192861  1
  Li  Li6  1  0.189042  0.690139  0.442533  1
  Li  Li7  1  0.322765  0.813537  0.070539  1
  Ti  Ti8  1  0.000099  0.003918  0.010562  1
  Ni  Ni9  1  0.376545  0.373766  0.873264  1
  Ni  Ni10  1  0.872893  0.872031  0.377943  1
  Ni  Ni11  1  0.749774  0.748081  0.748410  1
  Ni  Ni12  1  0.122720  0.124610  0.625807  1
  Ni  Ni13  1  0.502461  0.499020  0.499291  1
  Ni  Ni14  1  0.249201  0.251487  0.252251  1
  Ni  Ni15  1  0.623842  0.624675  0.124947  1
  O  O16  1  0.326678  0.081369  0.969306  1
  O  O17  1  0.712651  0.488978  0.845577  1
  O  O18  1  0.034637  0.259466  0.892531  1
  O  O19  1  0.432779  0.645755  0.756168  1
  O  O20  1  0.459968  0.237574  0.593092  1
  O  O21  1  0.787808  0.012445  0.656884  1
  O  O22  1  0.820194  0.587655  0.470782  1
  O  O23  1  0.072691  0.851296  0.728896  1
  O  O24  1  0.909919  0.151464  0.267505  1
  O  O25  1  0.180039  0.404353  0.532718  1
  O  O26  1  0.202726  0.982753  0.367590  1
  O  O27  1  0.537795  0.756452  0.407123  1
  O  O28  1  0.583781  0.366007  0.236314  1
  O  O29  1  0.953106  0.722340  0.090855  1
  O  O30  1  0.305795  0.529927  0.147212  1
  O  O31  1  0.664941  0.901869  0.037323  1
