# generated using pymatgen
data_LiFe3(OF3)2
_symmetry_space_group_name_H-M   'P 1'
_cell_length_a   5.35671325
_cell_length_b   6.04957989
_cell_length_c   5.27375372
_cell_angle_alpha   88.11195432
_cell_angle_beta   78.23766749
_cell_angle_gamma   71.13999345
_symmetry_Int_Tables_number   1
_chemical_formula_structural   LiFe3(OF3)2
_chemical_formula_sum   'Li1 Fe3 O2 F6'
_cell_volume   158.22897124
_cell_formula_units_Z   1
loop_
 _symmetry_equiv_pos_site_id
 _symmetry_equiv_pos_as_xyz
  1  'x, y, z'
loop_
 _atom_site_type_symbol
 _atom_site_label
 _atom_site_symmetry_multiplicity
 _atom_site_fract_x
 _atom_site_fract_y
 _atom_site_fract_z
 _atom_site_occupancy
  Li  Li0  1  0.979099  0.005457  0.990418  1
  Fe  Fe1  1  0.493046  0.121503  0.739550  1
  Fe  Fe2  1  0.483031  0.872706  0.256766  1
  Fe  Fe3  1  0.538614  0.624302  0.753061  1
  O  O4  1  0.305188  0.923545  0.625588  1
  O  O5  1  0.702005  0.834971  0.896903  1
  F  F6  1  0.245350  0.152985  0.098872  1
  F  F7  1  0.280395  0.703700  0.103990  1
  F  F8  1  0.303266  0.445137  0.672332  1
  F  F9  1  0.702373  0.057724  0.363498  1
  F  F10  1  0.733655  0.293395  0.844805  1
  F  F11  1  0.722439  0.582870  0.386377  1
