# generated using pymatgen
data_Co3WO8
_symmetry_space_group_name_H-M   'P 1'
_cell_length_a   5.78699915
_cell_length_b   5.78717639
_cell_length_c   9.18249117
_cell_angle_alpha   89.99704714
_cell_angle_beta   90.00144406
_cell_angle_gamma   120.00102459
_symmetry_Int_Tables_number   1
_chemical_formula_structural   Co3WO8
_chemical_formula_sum   'Co6 W2 O16'
_cell_volume   266.32185366
_cell_formula_units_Z   2
loop_
 _symmetry_equiv_pos_site_id
 _symmetry_equiv_pos_as_xyz
  1  'x, y, z'
loop_
 _atom_site_type_symbol
 _atom_site_label
 _atom_site_symmetry_multiplicity
 _atom_site_fract_x
 _atom_site_fract_y
 _atom_site_fract_z
 _atom_site_occupancy
  Co  Co0  1  0.167438  0.832597  0.212720  1
  Co  Co1  1  0.167428  0.334918  0.212844  1
  Co  Co2  1  0.665129  0.832582  0.212761  1
  Co  Co3  1  0.334871  0.167453  0.712761  1
  Co  Co4  1  0.832562  0.665159  0.712720  1
  Co  Co5  1  0.832571  0.167490  0.712844  1
  W  W6  1  0.333351  0.666834  0.492384  1
  W  W7  1  0.666650  0.333483  0.992384  1
  O  O8  1  0.169918  0.830171  0.595365  1
  O  O9  1  0.040573  0.520050  0.339658  1
  O  O10  1  0.333309  0.666618  0.113134  1
  O  O11  1  0.000002  0.000070  0.308770  1
  O  O12  1  0.999998  0.000068  0.808770  1
  O  O13  1  0.169767  0.339701  0.595449  1
  O  O14  1  0.479787  0.959413  0.339763  1
  O  O15  1  0.479530  0.520141  0.339596  1
  O  O16  1  0.339700  0.169971  0.095415  1
  O  O17  1  0.660300  0.830271  0.595415  1
  O  O18  1  0.520213  0.479626  0.839763  1
  O  O19  1  0.520470  0.040611  0.839596  1
  O  O20  1  0.666691  0.333309  0.613135  1
  O  O21  1  0.830082  0.660253  0.095365  1
  O  O22  1  0.959427  0.479477  0.839658  1
  O  O23  1  0.830233  0.169934  0.095448  1
