# generated using pymatgen
data_Li3Fe(Ni2O5)2
_symmetry_space_group_name_H-M   'P 1'
_cell_length_a   2.86157845
_cell_length_b   5.04770110
_cell_length_c   24.26773201
_cell_angle_alpha   93.78880064
_cell_angle_beta   90.00000000
_cell_angle_gamma   90.00000000
_symmetry_Int_Tables_number   1
_chemical_formula_structural   Li3Fe(Ni2O5)2
_chemical_formula_sum   'Li6 Fe2 Ni8 O20'
_cell_volume   349.76652789
_cell_formula_units_Z   2
loop_
 _symmetry_equiv_pos_site_id
 _symmetry_equiv_pos_as_xyz
  1  'x, y, z'
loop_
 _atom_site_type_symbol
 _atom_site_label
 _atom_site_symmetry_multiplicity
 _atom_site_fract_x
 _atom_site_fract_y
 _atom_site_fract_z
 _atom_site_occupancy
  Li  Li0  1  0.500000  0.802869  0.901551  1
  Li  Li1  1  0.500000  0.000020  0.499014  1
  Li  Li2  1  0.500000  0.199980  0.100986  1
  Li  Li3  1  0.500000  0.600000  0.300000  1
  Li  Li4  1  0.500000  0.397131  0.698449  1
  Li  Li5  1  0.000000  0.100000  0.300000  1
  Fe  Fe6  1  0.500000  0.100000  0.800000  1
  Fe  Fe7  1  0.000000  0.600000  0.800000  1
  Ni  Ni8  1  0.500000  0.303893  0.401581  1
  Ni  Ni9  1  0.500000  0.500396  0.000777  1
  Ni  Ni10  1  0.500000  0.699604  0.599223  1
  Ni  Ni11  1  0.500000  0.896107  0.198419  1
  Ni  Ni12  1  0.000000  0.000485  0.001005  1
  Ni  Ni13  1  0.000000  0.199515  0.598995  1
  Ni  Ni14  1  0.000000  0.398391  0.202492  1
  Ni  Ni15  1  0.000000  0.801609  0.397508  1
  O  O16  1  0.500000  0.075148  0.640864  1
  O  O17  1  0.500000  0.124852  0.959136  1
  O  O18  1  0.500000  0.266136  0.246156  1
  O  O19  1  0.500000  0.324405  0.557086  1
  O  O20  1  0.500000  0.456185  0.844355  1
  O  O21  1  0.500000  0.519359  0.160384  1
  O  O22  1  0.500000  0.680641  0.439616  1
  O  O23  1  0.500000  0.743815  0.755645  1
  O  O24  1  0.500000  0.875595  0.042914  1
  O  O25  1  0.500000  0.933864  0.353844  1
  O  O26  1  0.000000  0.079034  0.158965  1
  O  O27  1  0.000000  0.120966  0.441035  1
  O  O28  1  0.000000  0.264847  0.754496  1
  O  O29  1  0.000000  0.331937  0.040845  1
  O  O30  1  0.000000  0.465383  0.356093  1
  O  O31  1  0.000000  0.530405  0.639103  1
  O  O32  1  0.000000  0.669595  0.960897  1
  O  O33  1  0.000000  0.734617  0.243907  1
  O  O34  1  0.000000  0.868063  0.559155  1
  O  O35  1  0.000000  0.935153  0.845504  1
