# generated using pymatgen
data_VF5
_symmetry_space_group_name_H-M   'P 1'
_cell_length_a   5.36012910
_cell_length_b   9.20160759
_cell_length_c   8.29817708
_cell_angle_alpha   90.00000000
_cell_angle_beta   85.76879462
_cell_angle_gamma   90.00000000
_symmetry_Int_Tables_number   1
_chemical_formula_structural   VF5
_chemical_formula_sum   'V4 F20'
_cell_volume   408.16554884
_cell_formula_units_Z   4
loop_
 _symmetry_equiv_pos_site_id
 _symmetry_equiv_pos_as_xyz
  1  'x, y, z'
loop_
 _atom_site_type_symbol
 _atom_site_label
 _atom_site_symmetry_multiplicity
 _atom_site_fract_x
 _atom_site_fract_y
 _atom_site_fract_z
 _atom_site_occupancy
  V  V0  1  0.122488  0.122962  0.377503  1
  V  V1  1  0.377512  0.622962  0.122497  1
  V  V2  1  0.622488  0.377038  0.877503  1
  V  V3  1  0.877512  0.877038  0.622497  1
  F  F4  1  0.037198  0.751310  0.489747  1
  F  F5  1  0.094404  0.714848  0.125052  1
  F  F6  1  0.022420  0.812116  0.789303  1
  F  F7  1  0.180801  0.011015  0.573408  1
  F  F8  1  0.245087  0.471851  0.230629  1
  F  F9  1  0.254912  0.971851  0.269371  1
  F  F10  1  0.319199  0.511015  0.926592  1
  F  F11  1  0.405596  0.214848  0.374948  1
  F  F12  1  0.477580  0.312116  0.710697  1
  F  F13  1  0.462802  0.251310  0.010253  1
  F  F14  1  0.537198  0.748690  0.989747  1
  F  F15  1  0.522420  0.687884  0.289303  1
  F  F16  1  0.594404  0.785152  0.625052  1
  F  F17  1  0.680801  0.488985  0.073408  1
  F  F18  1  0.745087  0.028149  0.730629  1
  F  F19  1  0.754913  0.528149  0.769371  1
  F  F20  1  0.819199  0.988985  0.426592  1
  F  F21  1  0.977580  0.187884  0.210697  1
  F  F22  1  0.905596  0.285152  0.874948  1
  F  F23  1  0.962802  0.248690  0.510253  1
