# generated using pymatgen
data_Li2Mn3(BO3)3
_symmetry_space_group_name_H-M   'P 1'
_cell_length_a   5.86048002
_cell_length_b   8.23022281
_cell_length_c   9.09964943
_cell_angle_alpha   67.71356856
_cell_angle_beta   102.80889841
_cell_angle_gamma   77.92534960
_symmetry_Int_Tables_number   1
_chemical_formula_structural   Li2Mn3(BO3)3
_chemical_formula_sum   'Li4 Mn6 B6 O18'
_cell_volume   374.50985274
_cell_formula_units_Z   2
loop_
 _symmetry_equiv_pos_site_id
 _symmetry_equiv_pos_as_xyz
  1  'x, y, z'
loop_
 _atom_site_type_symbol
 _atom_site_label
 _atom_site_symmetry_multiplicity
 _atom_site_fract_x
 _atom_site_fract_y
 _atom_site_fract_z
 _atom_site_occupancy
  Li  Li0  1  0.717208  0.942514  0.565570  1
  Li  Li1  1  0.916922  0.385420  0.776065  1
  Li  Li2  1  0.616125  0.724153  0.101097  1
  Li  Li3  1  0.416412  0.281246  0.890601  1
  Mn  Mn4  1  0.810539  0.947247  0.217537  1
  Mn  Mn5  1  0.910741  0.333013  0.148885  1
  Mn  Mn6  1  0.522795  0.719420  0.449130  1
  Mn  Mn7  1  0.422592  0.333653  0.517782  1
  Mn  Mn8  1  0.106938  0.639368  0.902563  1
  Mn  Mn9  1  0.226395  0.027299  0.764104  1
  B  B10  1  0.877043  0.385121  0.440249  1
  B  B11  1  0.773445  0.981700  0.864232  1
  B  B12  1  0.559888  0.684967  0.802434  1
  B  B13  1  0.456290  0.281546  0.226418  1
  B  B14  1  0.234806  0.034620  0.101888  1
  B  B15  1  0.098528  0.632046  0.564779  1
  O  O16  1  0.839877  0.868402  0.032725  1
  O  O17  1  0.878828  0.780265  0.472043  1
  O  O18  1  0.912305  0.928371  0.772836  1
  O  O19  1  0.790562  0.473984  0.268530  1
  O  O20  1  0.727158  0.420375  0.533875  1
  O  O21  1  0.770061  0.527941  0.888018  1
  O  O22  1  0.454505  0.886402  0.194624  1
  O  O23  1  0.606175  0.246292  0.132792  1
  O  O24  1  0.493456  0.798265  0.633942  1
  O  O25  1  0.542771  0.192683  0.398137  1
  O  O26  1  0.421028  0.738295  0.893831  1
  O  O27  1  0.563272  0.138726  0.778649  1
  O  O28  1  0.216116  0.405427  0.137216  1
  O  O29  1  0.246728  0.590460  0.473620  1
  O  O30  1  0.163612  0.524614  0.733952  1
  O  O31  1  0.086605  0.076207  0.193046  1
  O  O32  1  0.117217  0.261240  0.529451  1
  O  O33  1  0.169721  0.142052  0.932715  1
