# generated using pymatgen
data_Li12Nb14ZnO42
_symmetry_space_group_name_H-M   'P 1'
_cell_length_a   9.27627202
_cell_length_b   9.06256169
_cell_length_c   9.89635812
_cell_angle_alpha   81.21075211
_cell_angle_beta   103.61680572
_cell_angle_gamma   80.66200458
_symmetry_Int_Tables_number   1
_chemical_formula_structural   Li12Nb14ZnO42
_chemical_formula_sum   'Li12 Nb14 Zn1 O42'
_cell_volume   781.87150147
_cell_formula_units_Z   1
loop_
 _symmetry_equiv_pos_site_id
 _symmetry_equiv_pos_as_xyz
  1  'x, y, z'
loop_
 _atom_site_type_symbol
 _atom_site_label
 _atom_site_symmetry_multiplicity
 _atom_site_fract_x
 _atom_site_fract_y
 _atom_site_fract_z
 _atom_site_occupancy
  Li  Li0  1  0.834180  0.613499  0.496761  1
  Li  Li1  1  0.905536  0.968749  0.282869  1
  Li  Li2  1  0.976556  0.326033  0.067968  1
  Li  Li3  1  0.692523  0.895743  0.925731  1
  Li  Li4  1  0.547802  0.182530  0.352903  1
  Li  Li5  1  0.405893  0.468956  0.783033  1
  Li  Li6  1  0.620719  0.540232  0.139065  1
  Li  Li7  1  0.333503  0.111713  0.996762  1
  Li  Li8  1  0.477206  0.824981  0.568655  1
  Li  Li9  1  0.191608  0.396217  0.425453  1
  Li  Li10  1  0.047439  0.684269  0.854129  1
  Li  Li11  1  0.262718  0.754491  0.211365  1
  Nb  Nb12  1  0.928750  0.642257  0.213658  1
  Nb  Nb13  1  0.852230  0.289366  0.427766  1
  Nb  Nb14  1  0.715962  0.570301  0.855674  1
  Nb  Nb15  1  0.779829  0.935332  0.641593  1
  Nb  Nb16  1  0.643505  0.214223  0.070277  1
  Nb  Nb17  1  0.505878  0.498804  0.500943  1
  Nb  Nb18  1  0.358648  0.781723  0.931271  1
  Nb  Nb19  1  0.432837  0.147717  0.717027  1
  Nb  Nb20  1  0.572058  0.856545  0.286207  1
  Nb  Nb21  1  0.142447  0.708329  0.571207  1
  Nb  Nb22  1  0.068213  0.356302  0.786875  1
  Nb  Nb23  1  0.286260  0.427715  0.143652  1
  Nb  Nb24  1  0.214400  0.071320  0.355431  1
  Nb  Nb25  1  0.998211  -0.000058  0.998072  1
  Zn  Zn26  1  0.121049  0.037891  0.641002  1
  O  O27  1  0.995393  0.873936  0.653997  1
  O  O28  1  0.996388  0.242117  0.647361  1
  O  O29  1  0.995397  0.119507  0.404947  1
  O  O30  1  0.859319  0.409427  0.835642  1
  O  O31  1  0.987187  0.745770  0.399264  1
  O  O32  1  0.846901  0.021591  0.830242  1
  O  O33  1  0.812166  0.732530  0.810358  1
  O  O34  1  0.955571  0.447575  0.382386  1
  O  O35  1  0.740587  0.124679  0.518158  1
  O  O36  1  0.597737  0.411802  0.954668  1
  O  O37  1  0.884329  0.840566  0.098561  1
  O  O38  1  0.711921  0.445361  0.503626  1
  O  O39  1  0.852531  0.154735  0.082067  1
  O  O40  1  0.566501  0.727224  0.938558  1
  O  O41  1  0.557566  0.101600  0.934193  1
  O  O42  1  0.702284  0.817435  0.507099  1
  O  O43  1  0.844033  0.531253  0.077973  1
  O  O44  1  0.566636  0.977122  0.688039  1
  O  O45  1  0.709380  0.690445  0.259789  1
  O  O46  1  0.701849  0.317587  0.254318  1
  O  O47  1  0.558294  0.602224  0.683602  1
  O  O48  1  0.518703  0.310502  0.664878  1
  O  O49  1  0.669469  0.019338  0.239264  1
  O  O50  1  0.455477  0.697845  0.383529  1
  O  O51  1  0.307776  0.982730  0.810283  1
  O  O52  1  0.279559  0.297276  0.796397  1
  O  O53  1  0.423601  0.012734  0.367168  1
  O  O54  1  0.417730  0.388561  0.364260  1
  O  O55  1  0.273591  0.674140  0.792269  1
  O  O56  1  0.279704  0.547814  0.543292  1
  O  O57  1  0.423915  0.261886  0.117043  1
  O  O58  1  0.138625  0.833283  0.974983  1
  O  O59  1  0.133400  0.460784  0.970826  1
  O  O60  1  0.272657  0.172235  0.544237  1
  O  O61  1  0.416797  0.888981  0.113423  1
  O  O62  1  0.098634  0.162599  0.953927  1
  O  O63  1  0.385093  0.590947  0.097538  1
  O  O64  1  0.240076  0.876518  0.528110  1
  O  O65  1  0.169211  0.269750  0.239560  1
  O  O66  1  0.026641  0.555923  0.668708  1
  O  O67  1  0.138246  0.583462  0.224190  1
  O  O68  1  0.131283  0.959066  0.221558  1
