# generated using pymatgen
data_VF5
_symmetry_space_group_name_H-M   'P 1'
_cell_length_a   9.40883811
_cell_length_b   6.33210417
_cell_length_c   6.22254097
_cell_angle_alpha   90.00028750
_cell_angle_beta   90.00038983
_cell_angle_gamma   90.00051079
_symmetry_Int_Tables_number   1
_chemical_formula_structural   VF5
_chemical_formula_sum   'V4 F20'
_cell_volume   370.72494690
_cell_formula_units_Z   4
loop_
 _symmetry_equiv_pos_site_id
 _symmetry_equiv_pos_as_xyz
  1  'x, y, z'
loop_
 _atom_site_type_symbol
 _atom_site_label
 _atom_site_symmetry_multiplicity
 _atom_site_fract_x
 _atom_site_fract_y
 _atom_site_fract_z
 _atom_site_occupancy
  V  V0  1  0.995528  0.098475  0.002389  1
  V  V1  1  0.504468  0.598485  0.502393  1
  V  V2  1  0.495524  0.401519  0.002405  1
  V  V3  1  0.004477  0.901519  0.502385  1
  F  F4  1  0.983057  0.374161  0.002402  1
  F  F5  1  0.013626  0.833337  0.194276  1
  F  F6  1  0.015159  0.833542  0.810358  1
  F  F7  1  0.185921  0.972977  0.500889  1
  F  F8  1  0.182639  0.081532  0.003470  1
  F  F9  1  0.317356  0.581537  0.503466  1
  F  F10  1  0.314068  0.472980  0.000882  1
  F  F11  1  0.484844  0.333536  0.310363  1
  F  F12  1  0.486376  0.333341  0.694280  1
  F  F13  1  0.516943  0.874170  0.502406  1
  F  F14  1  0.483056  0.125834  0.002400  1
  F  F15  1  0.513622  0.666659  0.194279  1
  F  F16  1  0.515154  0.666467  0.810367  1
  F  F17  1  0.685931  0.527023  0.500884  1
  F  F18  1  0.682638  0.418466  0.003471  1
  F  F19  1  0.817370  0.918462  0.503473  1
  F  F20  1  0.814078  0.027015  0.000887  1
  F  F21  1  0.984847  0.166456  0.310359  1
  F  F22  1  0.986375  0.166662  0.694277  1
  F  F23  1  0.016942  0.625846  0.502403  1
