# generated using pymatgen
data_LiFeSiO4
_symmetry_space_group_name_H-M   'P 1'
_cell_length_a   5.05464341
_cell_length_b   5.66188079
_cell_length_c   6.09902512
_cell_angle_alpha   89.96372366
_cell_angle_beta   89.32621941
_cell_angle_gamma   89.92718100
_symmetry_Int_Tables_number   1
_chemical_formula_structural   LiFeSiO4
_chemical_formula_sum   'Li2 Fe2 Si2 O8'
_cell_volume   174.53446641
_cell_formula_units_Z   2
loop_
 _symmetry_equiv_pos_site_id
 _symmetry_equiv_pos_as_xyz
  1  'x, y, z'
loop_
 _atom_site_type_symbol
 _atom_site_label
 _atom_site_symmetry_multiplicity
 _atom_site_fract_x
 _atom_site_fract_y
 _atom_site_fract_z
 _atom_site_occupancy
  Li  Li0  1  0.010730  0.337331  0.749818  1
  Li  Li1  1  0.512028  0.662544  0.249921  1
  Fe  Fe2  1  0.010392  0.839195  0.998292  1
  Fe  Fe3  1  0.509758  0.160564  0.498054  1
  Si  Si4  1  0.006208  0.834853  0.501377  1
  Si  Si5  1  0.505863  0.164993  0.001114  1
  O  O6  1  0.139360  0.101061  0.522149  1
  O  O7  1  0.120477  0.709231  0.274258  1
  O  O8  1  0.072160  0.678847  0.723740  1
  O  O9  1  0.182239  0.136188  0.980992  1
  O  O10  1  0.639813  0.898708  0.022161  1
  O  O11  1  0.571764  0.320806  0.223345  1
  O  O12  1  0.619585  0.290518  0.773847  1
  O  O13  1  0.682535  0.863586  0.481014  1
