# generated using pymatgen
data_Li2Mn3SbO8
_symmetry_space_group_name_H-M   'P 1'
_cell_length_a   8.64574967
_cell_length_b   8.64519893
_cell_length_c   8.64681440
_cell_angle_alpha   89.99166808
_cell_angle_beta   89.99177610
_cell_angle_gamma   90.00048740
_symmetry_Int_Tables_number   1
_chemical_formula_structural   Li2Mn3SbO8
_chemical_formula_sum   'Li8 Mn12 Sb4 O32'
_cell_volume   646.29943445
_cell_formula_units_Z   4
loop_
 _symmetry_equiv_pos_site_id
 _symmetry_equiv_pos_as_xyz
  1  'x, y, z'
loop_
 _atom_site_type_symbol
 _atom_site_label
 _atom_site_symmetry_multiplicity
 _atom_site_fract_x
 _atom_site_fract_y
 _atom_site_fract_z
 _atom_site_occupancy
  Li  Li0  1  0.007416  0.007433  0.007497  1
  Li  Li1  1  0.242569  0.242532  0.242511  1
  Li  Li2  1  0.257455  0.757452  0.742611  1
  Li  Li3  1  0.492577  0.992557  0.507413  1
  Li  Li4  1  0.507448  0.492559  0.992553  1
  Li  Li5  1  0.742507  0.257462  0.757437  1
  Li  Li6  1  0.757462  0.742572  0.257421  1
  Li  Li7  1  0.992505  0.507490  0.492498  1
  Mn  Mn8  1  0.123882  0.126125  0.625045  1
  Mn  Mn9  1  0.125044  0.376189  0.873863  1
  Mn  Mn10  1  0.126172  0.625054  0.123800  1
  Mn  Mn11  1  0.373835  0.374984  0.623824  1
  Mn  Mn12  1  0.374957  0.623814  0.373844  1
  Mn  Mn13  1  0.376205  0.873790  0.125025  1
  Mn  Mn14  1  0.623798  0.373879  0.374950  1
  Mn  Mn15  1  0.625025  0.123791  0.126207  1
  Mn  Mn16  1  0.626163  0.874959  0.876208  1
  Mn  Mn17  1  0.873824  0.125036  0.376188  1
  Mn  Mn18  1  0.874931  0.876192  0.626126  1
  Mn  Mn19  1  0.876182  0.626162  0.874967  1
  Sb  Sb20  1  0.125011  0.875006  0.374969  1
  Sb  Sb21  1  0.375027  0.125028  0.875081  1
  Sb  Sb22  1  0.624978  0.625040  0.624997  1
  Sb  Sb23  1  0.874980  0.374982  0.124991  1
  O  O24  1  0.106119  0.108577  0.374697  1
  O  O25  1  0.125309  0.893925  0.608532  1
  O  O26  1  0.107658  0.607725  0.892260  1
  O  O27  1  0.141503  0.143885  0.875382  1
  O  O28  1  0.108552  0.374673  0.106064  1
  O  O29  1  0.142403  0.357659  0.642329  1
  O  O30  1  0.124708  0.641485  0.356090  1
  O  O31  1  0.143892  0.875352  0.141456  1
  O  O32  1  0.356177  0.124687  0.641543  1
  O  O33  1  0.375332  0.358533  0.856158  1
  O  O34  1  0.357645  0.642331  0.142192  1
  O  O35  1  0.391437  0.625321  0.606167  1
  O  O36  1  0.358557  0.856018  0.375240  1
  O  O37  1  0.392230  0.392433  0.392238  1
  O  O38  1  0.374773  0.106026  0.108634  1
  O  O39  1  0.393964  0.891419  0.874830  1
  O  O40  1  0.606005  0.391425  0.625221  1
  O  O41  1  0.625303  0.606089  0.391447  1
  O  O42  1  0.607751  0.892240  0.107745  1
  O  O43  1  0.641477  0.356134  0.124703  1
  O  O44  1  0.608594  0.125277  0.893956  1
  O  O45  1  0.642221  0.142389  0.357733  1
  O  O46  1  0.624635  0.858536  0.643901  1
  O  O47  1  0.643951  0.624681  0.858536  1
  O  O48  1  0.856102  0.375276  0.358529  1
  O  O49  1  0.875247  0.141445  0.143963  1
  O  O50  1  0.857625  0.857710  0.857681  1
  O  O51  1  0.891435  0.874722  0.393879  1
  O  O52  1  0.858507  0.643925  0.624671  1
  O  O53  1  0.892264  0.107684  0.607606  1
  O  O54  1  0.874702  0.393896  0.891447  1
  O  O55  1  0.893965  0.608573  0.125282  1
