# generated using pymatgen
data_LiVPO4F
_symmetry_space_group_name_H-M   'P 1'
_cell_length_a   10.74469957
_cell_length_b   6.35881058
_cell_length_c   11.00597589
_cell_angle_alpha   90.04726143
_cell_angle_beta   89.84148835
_cell_angle_gamma   90.24356133
_symmetry_Int_Tables_number   1
_chemical_formula_structural   LiVPO4F
_chemical_formula_sum   'Li8 V8 P8 O32 F8'
_cell_volume   751.95697559
_cell_formula_units_Z   8
loop_
 _symmetry_equiv_pos_site_id
 _symmetry_equiv_pos_as_xyz
  1  'x, y, z'
loop_
 _atom_site_type_symbol
 _atom_site_label
 _atom_site_symmetry_multiplicity
 _atom_site_fract_x
 _atom_site_fract_y
 _atom_site_fract_z
 _atom_site_occupancy
  Li  Li0  1  0.240578  0.508592  0.320253  1
  Li  Li1  1  0.240958  0.995506  0.324884  1
  Li  Li2  1  0.275749  0.010286  0.816448  1
  Li  Li3  1  0.725831  0.494136  0.188608  1
  Li  Li4  1  0.724419  0.998926  0.196885  1
  Li  Li5  1  0.741791  0.478059  0.664850  1
  Li  Li6  1  0.772298  0.754225  0.908230  1
  Li  Li7  1  0.957368  0.246574  0.729371  1
  V  V8  1  0.004040  0.999265  0.002567  1
  V  V9  1  0.005266  0.500826  0.002505  1
  V  V10  1  0.996468  0.000773  0.498354  1
  V  V11  1  0.002238  0.506125  0.495728  1
  V  V12  1  0.501760  0.002141  0.501348  1
  V  V13  1  0.496964  0.502422  0.500720  1
  V  V14  1  0.500119  0.997005  0.000835  1
  V  V15  1  0.493070  0.495038  0.995346  1
  P  P16  1  0.038775  0.757128  0.742888  1
  P  P17  1  0.240584  0.750390  0.078865  1
  P  P18  1  0.260200  0.247036  0.572635  1
  P  P19  1  0.468163  0.251925  0.241725  1
  P  P20  1  0.535073  0.740618  0.760937  1
  P  P21  1  0.738899  0.749914  0.424092  1
  P  P22  1  0.761487  0.255238  0.924991  1
  P  P23  1  0.965984  0.249031  0.256964  1
  O  O24  1  0.016739  0.246633  0.120654  1
  O  O25  1  0.021700  0.052866  0.320965  1
  O  O26  1  0.024726  0.446868  0.318954  1
  O  O27  1  0.116260  0.251050  0.529504  1
  O  O28  1  0.175729  0.772448  0.755472  1
  O  O29  1  0.180473  0.548060  0.026031  1
  O  O30  1  0.182104  0.944944  0.014377  1
  O  O31  1  0.237303  0.757996  0.215965  1
  O  O32  1  0.266047  0.237632  0.707073  1
  O  O33  1  0.317679  0.053222  0.504159  1
  O  O34  1  0.315750  0.448141  0.509158  1
  O  O35  1  0.327009  0.249956  0.248586  1
  O  O36  1  0.381924  0.749006  0.033359  1
  O  O37  1  0.475489  0.544350  0.821871  1
  O  O38  1  0.479593  0.939335  0.824439  1
  O  O39  1  0.489802  0.749895  0.623414  1
  O  O40  1  0.519280  0.256630  0.377040  1
  O  O41  1  0.528089  0.055143  0.178501  1
  O  O42  1  0.525337  0.446065  0.174433  1
  O  O43  1  0.619342  0.249001  0.962496  1
  O  O44  1  0.676449  0.726496  0.761512  1
  O  O45  1  0.681561  0.554639  0.489006  1
  O  O46  1  0.680401  0.953696  0.472912  1
  O  O47  1  0.737451  0.739169  0.286192  1
  O  O48  1  0.782941  0.270569  0.789976  1
  O  O49  1  0.817029  0.049940  0.982189  1
  O  O50  1  0.816946  0.451990  0.993026  1
  O  O51  1  0.824808  0.249190  0.249419  1
  O  O52  1  0.881073  0.750436  0.468402  1
  O  O53  1  0.984766  0.555793  0.677170  1
  O  O54  1  0.978922  0.951785  0.677585  1
  O  O55  1  0.975193  0.749777  0.876971  1
  F  F56  1  0.035018  0.249376  0.887495  1
  F  F57  1  0.117529  0.757262  0.479080  1
  F  F58  1  0.382205  0.238216  0.986789  1
  F  F59  1  0.459997  0.752746  0.392450  1
  F  F60  1  0.537143  0.254120  0.609076  1
  F  F61  1  0.620789  0.745222  0.014216  1
  F  F62  1  0.883990  0.259292  0.523411  1
  F  F63  1  0.961132  0.749859  0.108650  1
