# generated using pymatgen
data_Li4Mn3Ni3(PO4)6
_symmetry_space_group_name_H-M   'P 1'
_cell_length_a   8.33421571
_cell_length_b   8.97195143
_cell_length_c   8.89941850
_cell_angle_alpha   59.21054894
_cell_angle_beta   58.49849931
_cell_angle_gamma   58.12406331
_symmetry_Int_Tables_number   1
_chemical_formula_structural   Li4Mn3Ni3(PO4)6
_chemical_formula_sum   'Li4 Mn3 Ni3 P6 O24'
_cell_volume   455.51184010
_cell_formula_units_Z   1
loop_
 _symmetry_equiv_pos_site_id
 _symmetry_equiv_pos_as_xyz
  1  'x, y, z'
loop_
 _atom_site_type_symbol
 _atom_site_label
 _atom_site_symmetry_multiplicity
 _atom_site_fract_x
 _atom_site_fract_y
 _atom_site_fract_z
 _atom_site_occupancy
  Li  Li0  1  0.246569  0.861218  0.644682  1
  Li  Li1  1  0.744532  0.152788  0.340614  1
  Li  Li2  1  0.744580  0.756198  0.151216  1
  Li  Li3  1  0.744478  0.351366  0.759325  1
  Mn  Mn4  1  0.067648  0.643723  0.645188  1
  Mn  Mn5  1  0.435912  0.857374  0.852746  1
  Mn  Mn6  1  0.963546  0.340324  0.348764  1
  Ni  Ni7  1  0.001909  0.997373  0.004081  1
  Ni  Ni8  1  0.553628  0.148473  0.147098  1
  Ni  Ni9  1  0.501951  0.492432  0.499521  1
  P  P10  1  0.259776  0.249486  0.555440  1
  P  P11  1  0.246447  0.939336  0.247698  1
  P  P12  1  0.245030  0.557845  0.944011  1
  P  P13  1  0.749191  0.456906  0.041458  1
  P  P14  1  0.761926  0.050352  0.750760  1
  P  P15  1  0.739587  0.752543  0.455667  1
  O  O16  1  0.050088  0.093420  0.309716  1
  O  O17  1  0.050632  0.529530  0.095373  1
  O  O18  1  0.057031  0.317890  0.537125  1
  O  O19  1  0.236102  0.081534  0.748513  1
  O  O20  1  0.442731  0.184658  0.394845  1
  O  O21  1  0.291312  0.390664  0.577467  1
  O  O22  1  0.228381  0.919425  0.093920  1
  O  O23  1  0.268887  0.745415  0.412179  1
  O  O24  1  0.562782  0.612640  0.994046  1
  O  O25  1  0.275614  0.580472  0.741187  1
  O  O26  1  0.778232  0.261721  0.057738  1
  O  O27  1  0.589452  0.992265  0.816272  1
  O  O28  1  0.438211  0.969050  0.191474  1
  O  O29  1  0.215135  0.756101  0.918969  1
  O  O30  1  0.716559  0.436154  0.240471  1
  O  O31  1  0.437633  0.400293  0.975309  1
  O  O32  1  0.722639  0.250973  0.602781  1
  O  O33  1  0.774701  0.072166  0.909560  1
  O  O34  1  0.720525  0.603881  0.428636  1
  O  O35  1  0.540325  0.818992  0.606045  1
  O  O36  1  0.774599  0.907039  0.258689  1
  O  O37  1  0.917698  0.684809  0.511425  1
  O  O38  1  0.938256  0.498651  0.887441  1
  O  O39  1  0.965765  0.907517  0.679549  1
