# generated using pymatgen
data_Li4Fe3TeO8
_symmetry_space_group_name_H-M   'P 1'
_cell_length_a   10.56763630
_cell_length_b   10.57022478
_cell_length_c   14.92391869
_cell_angle_alpha   19.64845435
_cell_angle_beta   19.65042556
_cell_angle_gamma   33.68291829
_symmetry_Int_Tables_number   1
_chemical_formula_structural   Li4Fe3TeO8
_chemical_formula_sum   'Li4 Fe3 Te1 O8'
_cell_volume   164.87548027
_cell_formula_units_Z   1
loop_
 _symmetry_equiv_pos_site_id
 _symmetry_equiv_pos_as_xyz
  1  'x, y, z'
loop_
 _atom_site_type_symbol
 _atom_site_label
 _atom_site_symmetry_multiplicity
 _atom_site_fract_x
 _atom_site_fract_y
 _atom_site_fract_z
 _atom_site_occupancy
  Li  Li0  1  0.999996  0.999999  0.500004  1
  Li  Li1  1  0.000005  0.500004  0.499995  1
  Li  Li2  1  0.499999  0.000003  0.499999  1
  Li  Li3  1  0.500001  0.499997  0.500003  1
  Fe  Fe4  1  -0.000006  0.499991  0.000007  1
  Fe  Fe5  1  0.500014  0.000006  -0.000013  1
  Fe  Fe6  1  0.499987  0.500003  0.000004  1
  Te  Te7  1  0.000002  -0.000003  0.000001  1
  O  O8  1  0.024450  0.024326  0.226509  1
  O  O9  1  0.981133  0.478863  0.280822  1
  O  O10  1  0.478952  0.980561  0.280983  1
  O  O11  1  0.975556  0.975675  0.773488  1
  O  O12  1  0.512686  0.512581  0.237847  1
  O  O13  1  0.018860  0.521131  0.719187  1
  O  O14  1  0.521047  0.019437  0.719018  1
  O  O15  1  0.487319  0.487426  0.762147  1
