# generated using pymatgen
data_LiMnPHO5
_symmetry_space_group_name_H-M   'P 1'
_cell_length_a   5.41743559
_cell_length_b   7.42565993
_cell_length_c   5.20991580
_cell_angle_alpha   109.73173502
_cell_angle_beta   99.40969109
_cell_angle_gamma   105.46515589
_symmetry_Int_Tables_number   1
_chemical_formula_structural   LiMnPHO5
_chemical_formula_sum   'Li2 Mn2 P2 H2 O10'
_cell_volume   182.56068141
_cell_formula_units_Z   2
loop_
 _symmetry_equiv_pos_site_id
 _symmetry_equiv_pos_as_xyz
  1  'x, y, z'
loop_
 _atom_site_type_symbol
 _atom_site_label
 _atom_site_symmetry_multiplicity
 _atom_site_fract_x
 _atom_site_fract_y
 _atom_site_fract_z
 _atom_site_occupancy
  Li  Li0  1  0.396362  0.824966  0.747643  1
  Li  Li1  1  0.603638  0.175034  0.252357  1
  Mn  Mn2  1  0.000000  0.500000  0.000000  1
  Mn  Mn3  1  0.000000  0.000000  0.000000  1
  P  P4  1  0.371000  0.236515  0.683537  1
  P  P5  1  0.629000  0.763485  0.316463  1
  H  H6  1  0.062069  0.325491  0.358656  1
  H  H7  1  0.937931  0.674509  0.641344  1
  O  O8  1  0.050552  0.738036  0.840784  1
  O  O9  1  0.214254  0.385517  0.728778  1
  O  O10  1  0.331929  0.654840  0.302741  1
  O  O11  1  0.261535  0.076755  0.371461  1
  O  O12  1  0.357893  0.128324  0.888240  1
  O  O13  1  0.642107  0.871676  0.111760  1
  O  O14  1  0.738465  0.923245  0.628539  1
  O  O15  1  0.668071  0.345160  0.697259  1
  O  O16  1  0.785746  0.614483  0.271222  1
  O  O17  1  0.949448  0.261964  0.159216  1
