# generated using pymatgen
data_Li3Mn(CO3)4
_symmetry_space_group_name_H-M   'P 1'
_cell_length_a   11.55772678
_cell_length_b   9.85682971
_cell_length_c   8.49489511
_cell_angle_alpha   90.00000000
_cell_angle_beta   92.10414704
_cell_angle_gamma   90.00000000
_symmetry_Int_Tables_number   1
_chemical_formula_structural   Li3Mn(CO3)4
_chemical_formula_sum   'Li12 Mn4 C16 O48'
_cell_volume   967.10754508
_cell_formula_units_Z   4
loop_
 _symmetry_equiv_pos_site_id
 _symmetry_equiv_pos_as_xyz
  1  'x, y, z'
loop_
 _atom_site_type_symbol
 _atom_site_label
 _atom_site_symmetry_multiplicity
 _atom_site_fract_x
 _atom_site_fract_y
 _atom_site_fract_z
 _atom_site_occupancy
  Li  Li0  1  0.209128  0.920986  0.681022  1
  Li  Li1  1  0.209128  0.579014  0.181022  1
  Li  Li2  1  0.340354  0.660207  0.518815  1
  Li  Li3  1  0.340354  0.839793  0.018815  1
  Li  Li4  1  0.658683  0.161033  0.967996  1
  Li  Li5  1  0.658683  0.338967  0.467996  1
  Li  Li6  1  0.768838  0.402893  0.801057  1
  Li  Li7  1  0.768838  0.097107  0.301057  1
  Li  Li8  1  0.861095  0.640142  0.939015  1
  Li  Li9  1  0.861095  0.859858  0.439015  1
  Li  Li10  1  0.928372  0.123411  0.941230  1
  Li  Li11  1  0.928372  0.376589  0.441230  1
  Mn  Mn12  1  0.269191  0.414475  0.750952  1
  Mn  Mn13  1  0.269191  0.085525  0.250952  1
  Mn  Mn14  1  0.725451  0.890587  0.768801  1
  Mn  Mn15  1  0.725451  0.609413  0.268801  1
  C  C16  1  0.017445  0.381677  0.766498  1
  C  C17  1  0.017445  0.118323  0.266498  1
  C  C18  1  0.220775  0.647492  0.843529  1
  C  C19  1  0.220775  0.852508  0.343529  1
  C  C20  1  0.289395  0.141857  0.890603  1
  C  C21  1  0.289395  0.358143  0.390603  1
  C  C22  1  0.480169  0.858104  0.742002  1
  C  C23  1  0.480169  0.641896  0.242002  1
  C  C24  1  0.519662  0.359306  0.755445  1
  C  C25  1  0.519662  0.140694  0.255445  1
  C  C26  1  0.720328  0.640897  0.614626  1
  C  C27  1  0.720328  0.859103  0.114626  1
  C  C28  1  0.792048  0.139711  0.634750  1
  C  C29  1  0.792048  0.360289  0.134750  1
  C  C30  1  0.971186  0.890830  0.751665  1
  C  C31  1  0.971186  0.609170  0.251665  1
  O  O32  1  0.995713  0.841355  0.619357  1
  O  O33  1  0.995713  0.658645  0.119357  1
  O  O34  1  0.025180  0.988573  0.815702  1
  O  O35  1  0.025180  0.511427  0.315702  1
  O  O36  1  0.111356  0.366999  0.683914  1
  O  O37  1  0.111356  0.133001  0.183914  1
  O  O38  1  0.208369  0.769914  0.878210  1
  O  O39  1  0.208978  0.544237  0.937023  1
  O  O40  1  0.208369  0.730086  0.378210  1
  O  O41  1  0.208978  0.955763  0.437023  1
  O  O42  1  0.250401  0.610288  0.702042  1
  O  O43  1  0.250401  0.889712  0.202042  1
  O  O44  1  0.271581  0.270293  0.905422  1
  O  O45  1  0.271581  0.229707  0.405422  1
  O  O46  1  0.294174  0.079839  0.761907  1
  O  O47  1  0.294174  0.420161  0.261907  1
  O  O48  1  0.306282  0.070953  0.019537  1
  O  O49  1  0.306282  0.429047  0.519537  1
  O  O50  1  0.400187  0.833098  0.639304  1
  O  O51  1  0.400187  0.666902  0.139303  1
  O  O52  1  0.435029  0.433455  0.804028  1
  O  O53  1  0.435029  0.066545  0.304028  1
  O  O54  1  0.523131  0.315871  0.614641  1
  O  O55  1  0.523131  0.184129  0.114641  1
  O  O56  1  0.474802  0.809132  0.880057  1
  O  O57  1  0.474802  0.690868  0.380057  1
  O  O58  1  0.566943  0.935716  0.705401  1
  O  O59  1  0.566943  0.564284  0.205401  1
  O  O60  1  0.604695  0.331884  0.851363  1
  O  O61  1  0.604695  0.168116  0.351363  1
  O  O62  1  0.700348  0.557852  0.497491  1
  O  O63  1  0.700348  0.942148  0.997491  1
  O  O64  1  0.727878  0.598889  0.754895  1
  O  O65  1  0.727878  0.901111  0.254895  1
  O  O66  1  0.730932  0.770504  0.580421  1
  O  O67  1  0.730932  0.729496  0.080421  1
  O  O68  1  0.774325  0.100876  0.781213  1
  O  O69  1  0.774325  0.399124  0.281213  1
  O  O70  1  0.802921  0.047302  0.531067  1
  O  O71  1  0.796014  0.267632  0.604961  1
  O  O72  1  0.802921  0.452698  0.031067  1
  O  O73  1  0.796014  0.232368  0.104961  1
  O  O74  1  0.883181  0.834992  0.829125  1
  O  O75  1  0.883181  0.665008  0.329125  1
  O  O76  1  0.951508  0.480708  0.728198  1
  O  O77  1  0.951508  0.019292  0.228198  1
  O  O78  1  0.992754  0.295312  0.869047  1
  O  O79  1  0.992754  0.204688  0.369047  1
