# generated using pymatgen
data_Li2Cr(Si2O5)3
_symmetry_space_group_name_H-M   'P 1'
_cell_length_a   11.04215548
_cell_length_b   11.04215613
_cell_length_c   10.04982869
_cell_angle_alpha   90.00000000
_cell_angle_beta   90.00000000
_cell_angle_gamma   79.89026800
_symmetry_Int_Tables_number   1
_chemical_formula_structural   Li2Cr(Si2O5)3
_chemical_formula_sum   'Li8 Cr4 Si24 O60'
_cell_volume   1206.34180168
_cell_formula_units_Z   4
loop_
 _symmetry_equiv_pos_site_id
 _symmetry_equiv_pos_as_xyz
  1  'x, y, z'
loop_
 _atom_site_type_symbol
 _atom_site_label
 _atom_site_symmetry_multiplicity
 _atom_site_fract_x
 _atom_site_fract_y
 _atom_site_fract_z
 _atom_site_occupancy
  Li  Li0  1  0.013234  0.513234  0.750000  1
  Li  Li1  1  0.241362  0.758638  0.000000  1
  Li  Li2  1  0.258638  0.741362  0.500000  1
  Li  Li3  1  0.513234  0.013234  0.750000  1
  Li  Li4  1  0.486766  0.986766  0.250000  1
  Li  Li5  1  0.741362  0.258638  0.500000  1
  Li  Li6  1  0.758638  0.241362  0.000000  1
  Li  Li7  1  0.986766  0.486766  0.250000  1
  Cr  Cr8  1  0.160880  0.660880  0.250000  1
  Cr  Cr9  1  0.339120  0.839120  0.750000  1
  Cr  Cr10  1  0.660880  0.160880  0.250000  1
  Cr  Cr11  1  0.839120  0.339120  0.750000  1
  Si  Si12  1  0.020765  0.240583  0.489875  1
  Si  Si13  1  0.075232  0.294594  0.954641  1
  Si  Si14  1  0.043769  0.816726  0.801732  1
  Si  Si15  1  0.240583  0.020765  0.489875  1
  Si  Si16  1  0.205406  0.424768  0.454641  1
  Si  Si17  1  0.294594  0.075232  0.954641  1
  Si  Si18  1  0.259417  0.479235  0.989875  1
  Si  Si19  1  0.183274  0.956231  0.198268  1
  Si  Si20  1  0.316726  0.543769  0.698268  1
  Si  Si21  1  0.424768  0.205406  0.454641  1
  Si  Si22  1  0.479235  0.259417  0.989875  1
  Si  Si23  1  0.456231  0.683274  0.301732  1
  Si  Si24  1  0.543769  0.316726  0.698268  1
  Si  Si25  1  0.520765  0.740583  0.010125  1
  Si  Si26  1  0.575232  0.794594  0.545359  1
  Si  Si27  1  0.683274  0.456231  0.301732  1
  Si  Si28  1  0.816726  0.043769  0.801732  1
  Si  Si29  1  0.740583  0.520765  0.010125  1
  Si  Si30  1  0.705406  0.924768  0.045359  1
  Si  Si31  1  0.794594  0.575232  0.545359  1
  Si  Si32  1  0.759417  0.979235  0.510125  1
  Si  Si33  1  0.956231  0.183274  0.198268  1
  Si  Si34  1  0.924768  0.705406  0.045359  1
  Si  Si35  1  0.979235  0.759417  0.510125  1
  O  O36  1  0.058060  0.058060  0.198556  1
  O  O37  1  0.000194  0.352562  0.824665  1
  O  O38  1  0.103163  0.103163  0.503405  1
  O  O39  1  0.015452  0.724924  0.921615  1
  O  O40  1  0.030789  0.738608  0.664643  1
  O  O41  1  0.105969  0.344852  0.514759  1
  O  O42  1  0.165641  0.165641  0.918373  1
  O  O43  1  0.155148  0.394031  0.014759  1
  O  O44  1  0.095756  0.743333  0.411097  1
  O  O45  1  0.147438  0.499806  0.324665  1
  O  O46  1  0.157333  0.819630  0.168319  1
  O  O47  1  0.224924  0.515452  0.578385  1
  O  O48  1  0.180370  0.842667  0.831681  1
  O  O49  1  0.238608  0.530789  0.835357  1
  O  O50  1  0.352562  0.000194  0.824665  1
  O  O51  1  0.243333  0.595756  0.088903  1
  O  O52  1  0.344852  0.105969  0.514759  1
  O  O53  1  0.334359  0.334359  0.418373  1
  O  O54  1  0.394031  0.155148  0.014759  1
  O  O55  1  0.256667  0.904244  0.588903  1
  O  O56  1  0.261392  0.969211  0.335357  1
  O  O57  1  0.319630  0.657333  0.331681  1
  O  O58  1  0.275076  0.984548  0.078385  1
  O  O59  1  0.396837  0.396837  0.003405  1
  O  O60  1  0.342667  0.680370  0.668319  1
  O  O61  1  0.499806  0.147438  0.324665  1
  O  O62  1  0.441940  0.441940  0.698556  1
  O  O63  1  0.404244  0.756667  0.911097  1
  O  O64  1  0.515452  0.224924  0.578385  1
  O  O65  1  0.530789  0.238608  0.835357  1
  O  O66  1  0.469211  0.761392  0.164643  1
  O  O67  1  0.484548  0.775076  0.421615  1
  O  O68  1  0.595756  0.243333  0.088903  1
  O  O69  1  0.558060  0.558060  0.301444  1
  O  O70  1  0.500194  0.852562  0.675335  1
  O  O71  1  0.657333  0.319630  0.331681  1
  O  O72  1  0.603163  0.603163  0.996595  1
  O  O73  1  0.724924  0.015452  0.921615  1
  O  O74  1  0.680370  0.342667  0.668319  1
  O  O75  1  0.738608  0.030789  0.664643  1
  O  O76  1  0.743333  0.095756  0.411097  1
  O  O77  1  0.605969  0.844852  0.985241  1
  O  O78  1  0.665641  0.665641  0.581627  1
  O  O79  1  0.655148  0.894031  0.485241  1
  O  O80  1  0.756667  0.404244  0.911097  1
  O  O81  1  0.647438  0.999806  0.175335  1
  O  O82  1  0.761392  0.469211  0.164643  1
  O  O83  1  0.819630  0.157333  0.168319  1
  O  O84  1  0.775076  0.484548  0.421615  1
  O  O85  1  0.842667  0.180370  0.831681  1
  O  O86  1  0.852562  0.500194  0.675335  1
  O  O87  1  0.904244  0.256667  0.588903  1
  O  O88  1  0.844852  0.605969  0.985241  1
  O  O89  1  0.834359  0.834359  0.081627  1
  O  O90  1  0.894031  0.655148  0.485241  1
  O  O91  1  0.969211  0.261392  0.335357  1
  O  O92  1  0.984548  0.275076  0.078385  1
  O  O93  1  0.896837  0.896837  0.496595  1
  O  O94  1  0.999806  0.647438  0.175335  1
  O  O95  1  0.941940  0.941940  0.801444  1
