# generated using pymatgen
data_Mn2OF3
_symmetry_space_group_name_H-M   'P 1'
_cell_length_a   4.79585788
_cell_length_b   10.60679790
_cell_length_c   6.02943873
_cell_angle_alpha   90.00000000
_cell_angle_beta   90.00000000
_cell_angle_gamma   90.00000000
_symmetry_Int_Tables_number   1
_chemical_formula_structural   Mn2OF3
_chemical_formula_sum   'Mn8 O4 F12'
_cell_volume   306.70968153
_cell_formula_units_Z   4
loop_
 _symmetry_equiv_pos_site_id
 _symmetry_equiv_pos_as_xyz
  1  'x, y, z'
loop_
 _atom_site_type_symbol
 _atom_site_label
 _atom_site_symmetry_multiplicity
 _atom_site_fract_x
 _atom_site_fract_y
 _atom_site_fract_z
 _atom_site_occupancy
  Mn  Mn0  1  0.000000  0.000000  0.000000  1
  Mn  Mn1  1  0.000000  0.000000  0.500000  1
  Mn  Mn2  1  0.044707  0.281626  0.250000  1
  Mn  Mn3  1  0.455293  0.781626  0.250000  1
  Mn  Mn4  1  0.500000  0.500000  0.500000  1
  Mn  Mn5  1  0.500000  0.500000  0.000000  1
  Mn  Mn6  1  0.544707  0.218374  0.750000  1
  Mn  Mn7  1  0.955293  0.718374  0.750000  1
  O  O8  1  0.195185  0.932458  0.250000  1
  O  O9  1  0.304815  0.432458  0.250000  1
  O  O10  1  0.695185  0.567542  0.750000  1
  O  O11  1  0.804815  0.067542  0.750000  1
  F  F12  1  0.202724  0.897609  0.750000  1
  F  F13  1  0.251977  0.662445  0.998764  1
  F  F14  1  0.251977  0.662445  0.501236  1
  F  F15  1  0.248023  0.162445  0.998764  1
  F  F16  1  0.248023  0.162445  0.501236  1
  F  F17  1  0.297276  0.397609  0.750000  1
  F  F18  1  0.702724  0.602391  0.250000  1
  F  F19  1  0.751977  0.837555  0.498764  1
  F  F20  1  0.751977  0.837555  0.001236  1
  F  F21  1  0.748023  0.337555  0.498764  1
  F  F22  1  0.748023  0.337555  0.001236  1
  F  F23  1  0.797276  0.102391  0.250000  1
