# generated using pymatgen
data_Li2Fe3(BO3)3
_symmetry_space_group_name_H-M   'P 1'
_cell_length_a   8.16184047
_cell_length_b   8.21393474
_cell_length_c   6.11816753
_cell_angle_alpha   90.00000000
_cell_angle_beta   90.00000000
_cell_angle_gamma   60.25268217
_symmetry_Int_Tables_number   1
_chemical_formula_structural   Li2Fe3(BO3)3
_chemical_formula_sum   'Li4 Fe6 B6 O18'
_cell_volume   356.11602932
_cell_formula_units_Z   2
loop_
 _symmetry_equiv_pos_site_id
 _symmetry_equiv_pos_as_xyz
  1  'x, y, z'
loop_
 _atom_site_type_symbol
 _atom_site_label
 _atom_site_symmetry_multiplicity
 _atom_site_fract_x
 _atom_site_fract_y
 _atom_site_fract_z
 _atom_site_occupancy
  Li  Li0  1  0.276006  0.688070  0.250000  1
  Li  Li1  1  0.010506  0.288162  0.750000  1
  Li  Li2  1  0.707211  0.021207  0.250000  1
  Li  Li3  1  0.703408  0.024275  0.750000  1
  Fe  Fe4  1  0.359955  0.989090  0.998673  1
  Fe  Fe5  1  0.359955  0.989090  0.501327  1
  Fe  Fe6  1  0.635883  0.382450  0.501461  1
  Fe  Fe7  1  0.635883  0.382450  0.998539  1
  Fe  Fe8  1  0.995379  0.630075  0.001418  1
  Fe  Fe9  1  0.995379  0.630075  0.498582  1
  B  B10  1  0.673833  0.673013  0.750000  1
  B  B11  1  0.665284  0.672295  0.250000  1
  B  B12  1  -0.000309  0.994088  0.000991  1
  B  B13  1  -0.000309  0.994088  0.499009  1
  B  B14  1  0.334794  0.330127  0.750000  1
  B  B15  1  0.333669  0.331392  0.250000  1
  O  O16  1  0.099678  0.804753  0.483271  1
  O  O17  1  0.099678  0.804753  0.016729  1
  O  O18  1  0.462247  0.797242  0.250000  1
  O  O19  1  0.475802  0.795236  0.750000  1
  O  O20  1  0.144439  0.451912  0.250000  1
  O  O21  1  0.141654  0.441158  0.750000  1
  O  O22  1  0.099486  0.095089  0.985764  1
  O  O23  1  0.099486  0.095089  0.514236  1
  O  O24  1  0.458895  0.397239  0.250000  1
  O  O25  1  0.462581  0.389866  0.750000  1
  O  O26  1  0.789707  0.750774  0.750000  1
  O  O27  1  0.779537  0.751342  0.250000  1
  O  O28  1  0.744253  0.481316  0.750000  1
  O  O29  1  0.729403  0.485100  0.250000  1
  O  O30  1  0.407438  0.133262  0.250000  1
  O  O31  1  0.407036  0.131337  0.750000  1
  O  O32  1  0.804670  0.095859  0.998368  1
  O  O33  1  0.804670  0.095859  0.501632  1
