# generated using pymatgen
data_VPO5
_symmetry_space_group_name_H-M   'P 1'
_cell_length_a   17.79990398
_cell_length_b   9.01118099
_cell_length_c   5.10599503
_cell_angle_alpha   90.00000000
_cell_angle_beta   89.61647125
_cell_angle_gamma   90.00000000
_symmetry_Int_Tables_number   1
_chemical_formula_structural   VPO5
_chemical_formula_sum   'V8 P8 O40'
_cell_volume   818.97384114
_cell_formula_units_Z   8
loop_
 _symmetry_equiv_pos_site_id
 _symmetry_equiv_pos_as_xyz
  1  'x, y, z'
loop_
 _atom_site_type_symbol
 _atom_site_label
 _atom_site_symmetry_multiplicity
 _atom_site_fract_x
 _atom_site_fract_y
 _atom_site_fract_z
 _atom_site_occupancy
  V  V0  1  0.123716  0.386082  0.500299  1
  V  V1  1  0.134859  0.919092  0.084386  1
  V  V2  1  0.365141  0.419092  0.915614  1
  V  V3  1  0.376284  0.886082  0.499701  1
  V  V4  1  0.623716  0.113918  0.500299  1
  V  V5  1  0.634859  0.580908  0.084386  1
  V  V6  1  0.865141  0.080908  0.915614  1
  V  V7  1  0.876284  0.613918  0.499701  1
  P  P8  1  0.032541  0.232343  0.000864  1
  P  P9  1  0.197365  0.581859  0.999549  1
  P  P10  1  0.302635  0.081859  0.000451  1
  P  P11  1  0.467459  0.732343  0.999136  1
  P  P12  1  0.532541  0.267657  0.000864  1
  P  P13  1  0.697365  0.918141  0.999549  1
  P  P14  1  0.802635  0.418141  0.000451  1
  P  P15  1  0.967459  0.767657  0.999136  1
  O  O16  1  0.052759  0.795019  0.989084  1
  O  O17  1  0.052197  0.322045  0.247708  1
  O  O18  1  0.051013  0.323155  0.752757  1
  O  O19  1  0.074861  0.083479  0.990149  1
  O  O20  1  0.131895  0.918090  0.397404  1
  O  O21  1  0.156816  0.525265  0.247042  1
  O  O22  1  0.157596  0.523817  0.753563  1
  O  O23  1  0.186022  0.258830  0.499660  1
  O  O24  1  0.196541  0.752844  0.995866  1
  O  O25  1  0.219575  0.034655  0.995753  1
  O  O26  1  0.280425  0.534655  0.004247  1
  O  O27  1  0.303459  0.252844  0.004134  1
  O  O28  1  0.313978  0.758830  0.500340  1
  O  O29  1  0.343184  0.025265  0.752958  1
  O  O30  1  0.342404  0.023817  0.246437  1
  O  O31  1  0.368105  0.418090  0.602596  1
  O  O32  1  0.425139  0.583479  0.009851  1
  O  O33  1  0.448987  0.823155  0.247243  1
  O  O34  1  0.447803  0.822045  0.752292  1
  O  O35  1  0.447241  0.295019  0.010916  1
  O  O36  1  0.552759  0.704981  0.989084  1
  O  O37  1  0.552197  0.177955  0.247708  1
  O  O38  1  0.551013  0.176845  0.752757  1
  O  O39  1  0.574861  0.416521  0.990149  1
  O  O40  1  0.631895  0.581910  0.397404  1
  O  O41  1  0.656816  0.974735  0.247042  1
  O  O42  1  0.657596  0.976183  0.753563  1
  O  O43  1  0.686022  0.241170  0.499660  1
  O  O44  1  0.696541  0.747156  0.995866  1
  O  O45  1  0.719575  0.465345  0.995753  1
  O  O46  1  0.780425  0.965345  0.004247  1
  O  O47  1  0.803459  0.247156  0.004134  1
  O  O48  1  0.813978  0.741170  0.500340  1
  O  O49  1  0.842404  0.476183  0.246437  1
  O  O50  1  0.843184  0.474735  0.752958  1
  O  O51  1  0.868105  0.081910  0.602596  1
  O  O52  1  0.925139  0.916521  0.009851  1
  O  O53  1  0.948987  0.676845  0.247243  1
  O  O54  1  0.947803  0.677955  0.752292  1
  O  O55  1  0.947241  0.204981  0.010916  1
