# generated using pymatgen
data_Li6Fe9CoO20
_symmetry_space_group_name_H-M   'P 1'
_cell_length_a   21.13245501
_cell_length_b   2.96550207
_cell_length_c   6.04231451
_cell_angle_alpha   90.00000000
_cell_angle_beta   82.76517198
_cell_angle_gamma   90.00000000
_symmetry_Int_Tables_number   1
_chemical_formula_structural   Li6Fe9CoO20
_chemical_formula_sum   'Li6 Fe9 Co1 O20'
_cell_volume   375.64703511
_cell_formula_units_Z   1
loop_
 _symmetry_equiv_pos_site_id
 _symmetry_equiv_pos_as_xyz
  1  'x, y, z'
loop_
 _atom_site_type_symbol
 _atom_site_label
 _atom_site_symmetry_multiplicity
 _atom_site_fract_x
 _atom_site_fract_y
 _atom_site_fract_z
 _atom_site_occupancy
  Li  Li0  1  0.193316  0.000000  0.393498  1
  Li  Li1  1  0.306950  0.500000  0.619361  1
  Li  Li2  1  0.500355  0.500000  0.996470  1
  Li  Li3  1  0.693716  0.500000  0.390340  1
  Li  Li4  1  0.807336  0.000000  0.611156  1
  Li  Li5  1  0.999332  0.000000  0.000335  1
  Fe  Fe6  1  0.099675  0.500000  0.698572  1
  Fe  Fe7  1  0.194730  0.000000  0.918004  1
  Fe  Fe8  1  0.302173  0.500000  0.086140  1
  Fe  Fe9  1  0.399567  0.000000  0.297680  1
  Fe  Fe10  1  0.499566  0.500000  0.500681  1
  Fe  Fe11  1  0.600408  0.000000  0.698270  1
  Fe  Fe12  1  0.697718  0.500000  0.915067  1
  Fe  Fe13  1  0.804598  0.000000  0.087708  1
  Fe  Fe14  1  0.000145  0.000000  0.496910  1
  Co  Co15  1  0.900693  0.500000  0.299971  1
  O  O16  1  0.008717  0.500000  0.727055  1
  O  O17  1  0.097252  0.000000  0.490642  1
  O  O18  1  0.099745  0.000000  0.906748  1
  O  O19  1  0.204675  0.500000  0.139766  1
  O  O20  1  0.190260  0.500000  0.674708  1
  O  O21  1  0.306481  0.000000  0.327411  1
  O  O22  1  0.292157  0.000000  0.863891  1
  O  O23  1  0.398583  0.500000  0.079853  1
  O  O24  1  0.402513  0.500000  0.515728  1
  O  O25  1  0.492181  0.000000  0.269166  1
  O  O26  1  0.505853  0.000000  0.726695  1
  O  O27  1  0.596713  0.500000  0.480721  1
  O  O28  1  0.601199  0.500000  0.915218  1
  O  O29  1  0.707292  0.000000  0.138429  1
  O  O30  1  0.695028  0.000000  0.672357  1
  O  O31  1  0.811061  0.500000  0.324336  1
  O  O32  1  0.795546  0.500000  0.864305  1
  O  O33  1  0.900339  0.000000  0.097909  1
  O  O34  1  0.903078  0.000000  0.502540  1
  O  O35  1  0.990700  0.500000  0.272614  1
