# generated using pymatgen
data_V3Cr3(WO8)2
_symmetry_space_group_name_H-M   'P 1'
_cell_length_a   6.02658869
_cell_length_b   6.00752449
_cell_length_c   9.25542479
_cell_angle_alpha   89.96616416
_cell_angle_beta   91.07077486
_cell_angle_gamma   120.40610449
_symmetry_Int_Tables_number   1
_chemical_formula_structural   V3Cr3(WO8)2
_chemical_formula_sum   'V3 Cr3 W2 O16'
_cell_volume   288.93721587
_cell_formula_units_Z   1
loop_
 _symmetry_equiv_pos_site_id
 _symmetry_equiv_pos_as_xyz
  1  'x, y, z'
loop_
 _atom_site_type_symbol
 _atom_site_label
 _atom_site_symmetry_multiplicity
 _atom_site_fract_x
 _atom_site_fract_y
 _atom_site_fract_z
 _atom_site_occupancy
  V  V0  1  0.660099  0.830636  0.223750  1
  V  V1  1  0.828693  0.655952  0.717991  1
  V  V2  1  0.835006  0.170226  0.714825  1
  Cr  Cr3  1  0.170872  0.832257  0.208127  1
  Cr  Cr4  1  0.172027  0.339742  0.208365  1
  Cr  Cr5  1  0.339226  0.167786  0.706876  1
  W  W6  1  0.325076  0.662219  0.491648  1
  W  W7  1  0.659061  0.327523  0.993371  1
  O  O8  1  0.170393  0.820575  0.593904  1
  O  O9  1  0.051837  0.525293  0.337254  1
  O  O10  1  0.354964  0.678177  0.109200  1
  O  O11  1  0.989934  0.994580  0.300756  1
  O  O12  1  0.998292  0.985066  0.799478  1
  O  O13  1  0.174256  0.347576  0.594689  1
  O  O14  1  0.480606  0.954527  0.345265  1
  O  O15  1  0.479262  0.526729  0.345233  1
  O  O16  1  0.345272  0.174960  0.094967  1
  O  O17  1  0.643924  0.821362  0.597545  1
  O  O18  1  0.528088  0.479672  0.839773  1
  O  O19  1  0.521384  0.050877  0.843146  1
  O  O20  1  0.676075  0.348596  0.608342  1
  O  O21  1  0.820749  0.647760  0.096822  1
  O  O22  1  0.952715  0.482025  0.847356  1
  O  O23  1  0.822190  0.176082  0.097035  1
