# generated using pymatgen
data_LiV4P7O24
_symmetry_space_group_name_H-M   'P 1'
_cell_length_a   10.24086651
_cell_length_b   10.37780240
_cell_length_c   11.00093498
_cell_angle_alpha   112.62189172
_cell_angle_beta   109.28018685
_cell_angle_gamma   104.78212117
_symmetry_Int_Tables_number   1
_chemical_formula_structural   LiV4P7O24
_chemical_formula_sum   'Li2 V8 P14 O48'
_cell_volume   915.46586595
_cell_formula_units_Z   2
loop_
 _symmetry_equiv_pos_site_id
 _symmetry_equiv_pos_as_xyz
  1  'x, y, z'
loop_
 _atom_site_type_symbol
 _atom_site_label
 _atom_site_symmetry_multiplicity
 _atom_site_fract_x
 _atom_site_fract_y
 _atom_site_fract_z
 _atom_site_occupancy
  Li  Li0  1  0.873393  0.574301  0.328031  1
  Li  Li1  1  0.126607  0.425699  0.671969  1
  V  V2  1  0.625569  0.776582  0.113798  1
  V  V3  1  0.074033  0.689171  0.075049  1
  V  V4  1  0.925967  0.310829  0.924951  1
  V  V5  1  0.426408  0.581860  0.411221  1
  V  V6  1  0.573592  0.418140  0.588779  1
  V  V7  1  0.374431  0.223418  0.886202  1
  V  V8  1  0.244597  0.849061  0.743934  1
  V  V9  1  0.755403  0.150939  0.256066  1
  P  P10  1  0.935639  0.678600  0.737158  1
  P  P11  1  0.728132  0.869268  0.479357  1
  P  P12  1  0.998789  0.007415  0.225415  1
  P  P13  1  0.271868  0.130732  0.520643  1
  P  P14  1  0.502392  0.275017  0.242031  1
  P  P15  1  0.383878  0.938075  0.116502  1
  P  P16  1  0.616122  0.061925  0.883498  1
  P  P17  1  0.001211  0.992585  0.774585  1
  P  P18  1  0.758848  0.188556  0.566098  1
  P  P19  1  0.064361  0.321400  0.262842  1
  P  P20  1  0.241152  0.811444  0.433902  1
  P  P21  1  0.497608  0.724983  0.757969  1
  P  P22  1  0.302234  0.510895  0.051335  1
  P  P23  1  0.697766  0.489105  0.948665  1
  O  O24  1  0.509353  0.606856  0.628187  1
  O  O25  1  0.033454  0.673940  0.657578  1
  O  O26  1  0.165940  0.020490  0.801131  1
  O  O27  1  0.490647  0.393144  0.371813  1
  O  O28  1  0.632489  0.473464  0.794641  1
  O  O29  1  0.229230  0.439537  0.373104  1
  O  O30  1  0.708424  0.159964  0.842626  1
  O  O31  1  0.168070  0.814268  0.536335  1
  O  O32  1  0.372529  0.767862  0.461993  1
  O  O33  1  0.291576  0.840036  0.157374  1
  O  O34  1  0.266816  0.355028  0.920186  1
  O  O35  1  0.138755  0.512208  0.010392  1
  O  O36  1  0.587026  0.360882  0.952217  1
  O  O37  1  0.446958  0.045171  0.826264  1
  O  O38  1  0.107696  0.711407  0.272192  1
  O  O39  1  0.690378  0.107543  0.046468  1
  O  O40  1  0.360161  0.259220  0.506592  1
  O  O41  1  0.639839  0.740780  0.493408  1
  O  O42  1  0.432556  0.269282  0.096080  1
  O  O43  1  0.933722  0.851292  0.795019  1
  O  O44  1  0.672856  0.306182  0.296538  1
  O  O45  1  0.770770  0.560463  0.626896  1
  O  O46  1  0.327144  0.693818  0.703462  1
  O  O47  1  0.831930  0.185732  0.463665  1
  O  O48  1  0.966546  0.326060  0.342422  1
  O  O49  1  0.723899  0.821154  0.330680  1
  O  O50  1  0.309622  0.892457  0.953532  1
  O  O51  1  0.627471  0.232138  0.538007  1
  O  O52  1  0.015112  0.873190  0.128675  1
  O  O53  1  0.553042  0.954829  0.173736  1
  O  O54  1  0.315850  0.990143  0.467627  1
  O  O55  1  0.367511  0.526536  0.205359  1
  O  O56  1  0.892304  0.288593  0.727808  1
  O  O57  1  0.412974  0.639118  0.047783  1
  O  O58  1  0.997885  0.333998  0.125652  1
  O  O59  1  0.984888  0.126810  0.871325  1
  O  O60  1  0.276101  0.178846  0.669320  1
  O  O61  1  0.595335  0.889349  0.781762  1
  O  O62  1  0.834060  0.979510  0.198869  1
  O  O63  1  0.002115  0.666002  0.874348  1
  O  O64  1  0.404665  0.110651  0.218238  1
  O  O65  1  0.092429  0.064033  0.400625  1
  O  O66  1  0.861245  0.487792  0.989608  1
  O  O67  1  0.066278  0.148708  0.204981  1
  O  O68  1  0.684150  0.009857  0.532373  1
  O  O69  1  0.733184  0.644972  0.079814  1
  O  O70  1  0.567444  0.730718  0.903920  1
  O  O71  1  0.907571  0.935967  0.599375  1
