# generated using pymatgen
data_Ni9S10
_symmetry_space_group_name_H-M   'P 1'
_cell_length_a   5.94881895
_cell_length_b   7.79251302
_cell_length_c   6.13864648
_cell_angle_alpha   79.69851053
_cell_angle_beta   90.93614633
_cell_angle_gamma   68.85484466
_symmetry_Int_Tables_number   1
_chemical_formula_structural   Ni9S10
_chemical_formula_sum   'Ni9 S10'
_cell_volume   260.11109481
_cell_formula_units_Z   1
loop_
 _symmetry_equiv_pos_site_id
 _symmetry_equiv_pos_as_xyz
  1  'x, y, z'
loop_
 _atom_site_type_symbol
 _atom_site_label
 _atom_site_symmetry_multiplicity
 _atom_site_fract_x
 _atom_site_fract_y
 _atom_site_fract_z
 _atom_site_occupancy
  Ni  Ni0  1  0.386717  0.211674  0.820863  1
  Ni  Ni1  1  0.486436  0.013756  0.496959  1
  Ni  Ni2  1  0.702893  0.586965  0.911325  1
  Ni  Ni3  1  0.897048  0.213032  0.288518  1
  Ni  Ni4  1  0.799855  0.400057  0.599934  1
  Ni  Ni5  1  0.984107  0.999195  0.996150  1
  Ni  Ni6  1  0.113560  0.786339  0.703167  1
  Ni  Ni7  1  0.213269  0.588191  0.379144  1
  Ni  Ni8  1  0.616278  0.800856  0.204018  1
  S  S9  1  0.776709  0.098622  0.646901  1
  S  S10  1  0.010878  0.291387  0.947592  1
  S  S11  1  0.177086  0.303129  0.464167  1
  S  S12  1  0.613289  0.102179  0.152066  1
  S  S13  1  0.422978  0.496843  0.735761  1
  S  S14  1  0.382004  0.903129  0.851915  1
  S  S15  1  0.589056  0.508548  0.252313  1
  S  S16  1  0.823278  0.701348  0.553113  1
  S  S17  1  0.986756  0.697820  0.048136  1
  S  S18  1  0.218104  0.896830  0.348057  1
