# generated using pymatgen
data_Na2LiVPO6
_symmetry_space_group_name_H-M   'P 1'
_cell_length_a   5.97118600
_cell_length_b   7.93996658
_cell_length_c   12.59234413
_cell_angle_alpha   89.99990139
_cell_angle_beta   89.99830203
_cell_angle_gamma   69.74113703
_symmetry_Int_Tables_number   1
_chemical_formula_structural   Na2LiVPO6
_chemical_formula_sum   'Na8 Li4 V4 P4 O24'
_cell_volume   560.08312254
_cell_formula_units_Z   4
loop_
 _symmetry_equiv_pos_site_id
 _symmetry_equiv_pos_as_xyz
  1  'x, y, z'
loop_
 _atom_site_type_symbol
 _atom_site_label
 _atom_site_symmetry_multiplicity
 _atom_site_fract_x
 _atom_site_fract_y
 _atom_site_fract_z
 _atom_site_occupancy
  Na  Na0  1  0.862807  0.931815  0.907594  1
  Na  Na1  1  0.637206  0.568195  0.407598  1
  Na  Na2  1  0.809344  0.046991  0.663751  1
  Na  Na3  1  0.690674  0.453006  0.163757  1
  Na  Na4  1  0.309342  0.546994  0.836248  1
  Na  Na5  1  0.190635  0.953027  0.336246  1
  Na  Na6  1  0.362788  0.431828  0.592405  1
  Na  Na7  1  0.137194  0.068185  0.092418  1
  Li  Li8  1  0.951041  0.749111  0.476129  1
  Li  Li9  1  0.548981  0.750866  0.976124  1
  Li  Li10  1  0.451020  0.249126  0.023878  1
  Li  Li11  1  0.048965  0.250892  0.523862  1
  V  V12  1  0.690466  0.895969  0.215579  1
  V  V13  1  0.809525  0.604033  0.715583  1
  V  V14  1  0.190492  0.395957  0.284415  1
  V  V15  1  0.309512  0.104039  0.784423  1
  P  P16  1  0.906243  0.317942  0.903735  1
  P  P17  1  0.406267  0.817948  0.596275  1
  P  P18  1  0.593726  0.182062  0.403718  1
  P  P19  1  0.093750  0.682048  0.096268  1
  O  O20  1  0.943995  0.748370  0.763185  1
  O  O21  1  0.970593  0.446897  0.622690  1
  O  O22  1  0.845942  0.675672  0.064480  1
  O  O23  1  0.962526  0.165409  0.816423  1
  O  O24  1  0.654055  0.824318  0.564474  1
  O  O25  1  0.740718  0.497384  0.852698  1
  O  O26  1  0.773570  0.266413  0.996319  1
  O  O27  1  0.556003  0.751629  0.263188  1
  O  O28  1  0.470589  0.946894  0.877302  1
  O  O29  1  0.726435  0.233596  0.496318  1
  O  O30  1  0.759274  0.002628  0.352688  1
  O  O31  1  0.462546  0.665406  0.683577  1
  O  O32  1  0.537472  0.334604  0.316422  1
  O  O33  1  0.240727  0.997378  0.647311  1
  O  O34  1  0.273570  0.766411  0.503684  1
  O  O35  1  0.529405  0.053110  0.122695  1
  O  O36  1  0.443976  0.248382  0.736814  1
  O  O37  1  0.226428  0.733581  0.003684  1
  O  O38  1  0.259283  0.502608  0.147300  1
  O  O39  1  0.345941  0.175703  0.435513  1
  O  O40  1  0.037455  0.834584  0.183578  1
  O  O41  1  0.154059  0.324310  0.935521  1
  O  O42  1  0.029404  0.553103  0.377298  1
  O  O43  1  0.056013  0.251619  0.236818  1
