# generated using pymatgen
data_Li4Mn5Fe(PO4)6
_symmetry_space_group_name_H-M   'P 1'
_cell_length_a   8.47607555
_cell_length_b   8.98605243
_cell_length_c   9.01922021
_cell_angle_alpha   59.73202757
_cell_angle_beta   59.44860625
_cell_angle_gamma   58.91786931
_symmetry_Int_Tables_number   1
_chemical_formula_structural   Li4Mn5Fe(PO4)6
_chemical_formula_sum   'Li4 Mn5 Fe1 P6 O24'
_cell_volume   478.69702136
_cell_formula_units_Z   1
loop_
 _symmetry_equiv_pos_site_id
 _symmetry_equiv_pos_as_xyz
  1  'x, y, z'
loop_
 _atom_site_type_symbol
 _atom_site_label
 _atom_site_symmetry_multiplicity
 _atom_site_fract_x
 _atom_site_fract_y
 _atom_site_fract_z
 _atom_site_occupancy
  Li  Li0  1  0.252945  0.849013  0.640655  1
  Li  Li1  1  0.769144  0.150886  0.345171  1
  Li  Li2  1  0.766290  0.740557  0.145141  1
  Li  Li3  1  0.770411  0.344388  0.735738  1
  Mn  Mn4  1  0.005392  0.999074  0.009149  1
  Mn  Mn5  1  0.053390  0.646150  0.649603  1
  Mn  Mn6  1  0.496479  0.497083  0.498046  1
  Mn  Mn7  1  0.445206  0.849714  0.851761  1
  Mn  Mn8  1  0.964626  0.349909  0.342037  1
  Fe  Fe9  1  0.542465  0.153952  0.152123  1
  P  P10  1  0.253811  0.246264  0.556665  1
  P  P11  1  0.243155  0.950025  0.250313  1
  P  P12  1  0.250081  0.558746  0.944636  1
  P  P13  1  0.745900  0.450947  0.049401  1
  P  P14  1  0.759557  0.046583  0.753330  1
  P  P15  1  0.734628  0.754420  0.447187  1
  O  O16  1  0.049016  0.099156  0.315892  1
  O  O17  1  0.053389  0.543481  0.090472  1
  O  O18  1  0.053303  0.310765  0.541785  1
  O  O19  1  0.247105  0.076045  0.739619  1
  O  O20  1  0.424551  0.186939  0.391241  1
  O  O21  1  0.285691  0.391137  0.571584  1
  O  O22  1  0.228111  0.925463  0.100780  1
  O  O23  1  0.280647  0.766608  0.409775  1
  O  O24  1  0.563759  0.610331  0.005545  1
  O  O25  1  0.283063  0.577013  0.751292  1
  O  O26  1  0.760100  0.255635  0.074748  1
  O  O27  1  0.592606  0.984689  0.812173  1
  O  O28  1  0.421722  0.007318  0.175672  1
  O  O29  1  0.238467  0.751043  0.921303  1
  O  O30  1  0.721053  0.426427  0.244204  1
  O  O31  1  0.426695  0.395703  0.996743  1
  O  O32  1  0.723974  0.243277  0.606253  1
  O  O33  1  0.762820  0.076990  0.911105  1
  O  O34  1  0.727516  0.603119  0.412731  1
  O  O35  1  0.541163  0.813763  0.594315  1
  O  O36  1  0.758407  0.911641  0.252131  1
  O  O37  1  0.911627  0.695762  0.493156  1
  O  O38  1  0.932339  0.479940  0.900340  1
  O  O39  1  0.959397  0.903044  0.693183  1
