# generated using pymatgen
data_LiCr(SO4)2
_symmetry_space_group_name_H-M   'P 1'
_cell_length_a   8.93093734
_cell_length_b   8.90489472
_cell_length_c   8.92336599
_cell_angle_alpha   55.79687658
_cell_angle_beta   55.62366110
_cell_angle_gamma   55.61937713
_symmetry_Int_Tables_number   1
_chemical_formula_structural   LiCr(SO4)2
_chemical_formula_sum   'Li3 Cr3 S6 O24'
_cell_volume   451.51311656
_cell_formula_units_Z   3
loop_
 _symmetry_equiv_pos_site_id
 _symmetry_equiv_pos_as_xyz
  1  'x, y, z'
loop_
 _atom_site_type_symbol
 _atom_site_label
 _atom_site_symmetry_multiplicity
 _atom_site_fract_x
 _atom_site_fract_y
 _atom_site_fract_z
 _atom_site_occupancy
  Li  Li0  1  0.166477  0.135204  0.157194  1
  Li  Li1  1  0.180978  0.413409  0.777994  1
  Li  Li2  1  0.778492  0.181774  0.412307  1
  Cr  Cr3  1  0.355274  0.352920  0.349039  1
  Cr  Cr4  1  0.641651  0.645180  0.643083  1
  Cr  Cr5  1  0.848075  0.851065  0.854021  1
  S  S6  1  0.036819  0.744379  0.466774  1
  S  S7  1  0.463616  0.037106  0.748266  1
  S  S8  1  0.747536  0.469832  0.033213  1
  S  S9  1  0.251141  0.543541  0.954018  1
  S  S10  1  0.538034  0.955698  0.254679  1
  S  S11  1  0.954978  0.251670  0.542532  1
  O  O12  1  0.107442  0.300316  0.510421  1
  O  O13  1  0.300987  0.511054  0.105283  1
  O  O14  1  0.004322  0.949226  0.345659  1
  O  O15  1  0.520497  0.105072  0.300594  1
  O  O16  1  0.026749  0.702011  0.663214  1
  O  O17  1  0.234635  0.614561  0.380737  1
  O  O18  1  0.379640  0.240841  0.613879  1
  O  O19  1  0.335649  0.016655  0.946816  1
  O  O20  1  0.623770  0.374530  0.236275  1
  O  O21  1  0.045686  0.682590  0.984100  1
  O  O22  1  0.276421  0.361961  0.961312  1
  O  O23  1  0.351961  0.974487  0.285716  1
  O  O24  1  0.660765  0.026961  0.703149  1
  O  O25  1  0.708833  0.660848  0.024189  1
  O  O26  1  0.951717  0.340901  0.002967  1
  O  O27  1  0.378111  0.637153  0.758848  1
  O  O28  1  0.676645  0.983627  0.048315  1
  O  O29  1  0.633239  0.759103  0.380485  1
  O  O30  1  0.759577  0.379757  0.636405  1
  O  O31  1  0.962750  0.277183  0.360961  1
  O  O32  1  0.492221  0.897338  0.687618  1
  O  O33  1  0.982160  0.046838  0.681570  1
  O  O34  1  0.684163  0.497433  0.896156  1
  O  O35  1  0.892391  0.687979  0.497410  1
