# generated using pymatgen
data_LiV2OF5
_symmetry_space_group_name_H-M   'P 1'
_cell_length_a   5.23161493
_cell_length_b   5.55164300
_cell_length_c   12.87574294
_cell_angle_alpha   92.21192469
_cell_angle_beta   88.95367336
_cell_angle_gamma   61.62135883
_symmetry_Int_Tables_number   1
_chemical_formula_structural   LiV2OF5
_chemical_formula_sum   'Li3 V6 O3 F15'
_cell_volume   328.49277582
_cell_formula_units_Z   3
loop_
 _symmetry_equiv_pos_site_id
 _symmetry_equiv_pos_as_xyz
  1  'x, y, z'
loop_
 _atom_site_type_symbol
 _atom_site_label
 _atom_site_symmetry_multiplicity
 _atom_site_fract_x
 _atom_site_fract_y
 _atom_site_fract_z
 _atom_site_occupancy
  Li  Li0  1  0.366022  0.229047  0.106838  1
  Li  Li1  1  0.383863  0.221410  0.582119  1
  Li  Li2  1  0.721445  0.571457  0.922386  1
  V  V3  1  0.325397  0.317586  0.341958  1
  V  V4  1  0.007899  0.004476  0.494355  1
  V  V5  1  0.342740  0.352426  0.828821  1
  V  V6  1  0.995534  0.020615  0.002538  1
  V  V7  1  0.687422  0.638773  0.166063  1
  V  V8  1  0.657097  0.660256  0.673518  1
  O  O9  1  0.203351  0.194500  0.454473  1
  O  O10  1  0.542813  0.539436  0.791782  1
  O  O11  1  0.947001  0.331443  0.080153  1
  F  F12  1  0.095259  0.172253  0.878549  1
  F  F13  1  0.093954  0.451974  0.697973  1
  F  F14  1  0.027933  0.681578  0.914581  1
  F  F15  1  0.283634  0.651201  0.423558  1
  F  F16  1  0.610751  0.998510  0.758265  1
  F  F17  1  0.448995  0.453961  0.208411  1
  F  F18  1  0.262906  0.899544  0.622855  1
  F  F19  1  0.562188  0.232580  0.966959  1
  F  F20  1  0.432281  0.800437  0.035534  1
  F  F21  1  0.741314  0.111540  0.376173  1
  F  F22  1  0.392438  0.003578  0.232376  1
  F  F23  1  0.689103  0.338453  0.581653  1
  F  F24  1  0.922652  0.534695  0.287911  1
  F  F25  1  0.776942  0.829037  0.557385  1
  F  F26  1  0.874911  0.865816  0.116698  1
