# generated using pymatgen
data_Mn5Fe3O16
_symmetry_space_group_name_H-M   'P 1'
_cell_length_a   5.86203251
_cell_length_b   5.84415138
_cell_length_c   8.89959083
_cell_angle_alpha   90.01307222
_cell_angle_beta   89.45709546
_cell_angle_gamma   119.88363476
_symmetry_Int_Tables_number   1
_chemical_formula_structural   Mn5Fe3O16
_chemical_formula_sum   'Mn5 Fe3 O16'
_cell_volume   264.33402688
_cell_formula_units_Z   1
loop_
 _symmetry_equiv_pos_site_id
 _symmetry_equiv_pos_as_xyz
  1  'x, y, z'
loop_
 _atom_site_type_symbol
 _atom_site_label
 _atom_site_symmetry_multiplicity
 _atom_site_fract_x
 _atom_site_fract_y
 _atom_site_fract_z
 _atom_site_occupancy
  Mn  Mn0  1  0.335690  0.667821  0.487259  1
  Mn  Mn1  1  0.660608  0.830275  0.211395  1
  Mn  Mn2  1  0.665375  0.332490  0.986786  1
  Mn  Mn3  1  0.832121  0.664699  0.710604  1
  Mn  Mn4  1  0.832139  0.167596  0.710561  1
  Fe  Fe5  1  0.163196  0.831885  0.207774  1
  Fe  Fe6  1  0.163405  0.331308  0.207854  1
  Fe  Fe7  1  0.330268  0.165047  0.707049  1
  O  O8  1  0.165201  0.830695  0.600334  1
  O  O9  1  0.045809  0.522770  0.347556  1
  O  O10  1  0.340813  0.670765  0.098639  1
  O  O11  1  0.990936  0.995009  0.315469  1
  O  O12  1  0.993035  0.996637  0.816321  1
  O  O13  1  0.165107  0.334877  0.600167  1
  O  O14  1  0.484522  0.956445  0.343582  1
  O  O15  1  0.484882  0.528344  0.343645  1
  O  O16  1  0.340926  0.170523  0.101224  1
  O  O17  1  0.670439  0.835275  0.600552  1
  O  O18  1  0.524901  0.481549  0.841236  1
  O  O19  1  0.525471  0.043409  0.841398  1
  O  O20  1  0.674549  0.337328  0.600608  1
  O  O21  1  0.826863  0.662847  0.098503  1
  O  O22  1  0.957096  0.478588  0.838581  1
  O  O23  1  0.826651  0.164016  0.098624  1
