# generated using pymatgen
data_Li2V(Si2O5)3
_symmetry_space_group_name_H-M   'P 1'
_cell_length_a   11.06981436
_cell_length_b   11.06981402
_cell_length_c   10.01758900
_cell_angle_alpha   90.00000000
_cell_angle_beta   90.00000000
_cell_angle_gamma   80.43826895
_symmetry_Int_Tables_number   1
_chemical_formula_structural   Li2V(Si2O5)3
_chemical_formula_sum   'Li8 V4 Si24 O60'
_cell_volume   1210.50894794
_cell_formula_units_Z   4
loop_
 _symmetry_equiv_pos_site_id
 _symmetry_equiv_pos_as_xyz
  1  'x, y, z'
loop_
 _atom_site_type_symbol
 _atom_site_label
 _atom_site_symmetry_multiplicity
 _atom_site_fract_x
 _atom_site_fract_y
 _atom_site_fract_z
 _atom_site_occupancy
  Li  Li0  1  0.019948  0.519948  0.750000  1
  Li  Li1  1  0.241446  0.758554  0.000000  1
  Li  Li2  1  0.258554  0.741446  0.500000  1
  Li  Li3  1  0.519948  0.019948  0.750000  1
  Li  Li4  1  0.480052  0.980052  0.250000  1
  Li  Li5  1  0.741446  0.258554  0.500000  1
  Li  Li6  1  0.758554  0.241446  0.000000  1
  Li  Li7  1  0.980052  0.480052  0.250000  1
  V  V8  1  0.157994  0.657994  0.250000  1
  V  V9  1  0.342006  0.842006  0.750000  1
  V  V10  1  0.657994  0.157994  0.250000  1
  V  V11  1  0.842006  0.342006  0.750000  1
  Si  Si12  1  0.021554  0.236927  0.488427  1
  Si  Si13  1  0.078078  0.293803  0.953175  1
  Si  Si14  1  0.043755  0.818296  0.805194  1
  Si  Si15  1  0.236927  0.021554  0.488427  1
  Si  Si16  1  0.206197  0.421922  0.453175  1
  Si  Si17  1  0.293803  0.078078  0.953175  1
  Si  Si18  1  0.263073  0.478446  0.988427  1
  Si  Si19  1  0.181704  0.956245  0.194806  1
  Si  Si20  1  0.318296  0.543755  0.694806  1
  Si  Si21  1  0.421922  0.206197  0.453175  1
  Si  Si22  1  0.478446  0.263073  0.988427  1
  Si  Si23  1  0.456245  0.681704  0.305194  1
  Si  Si24  1  0.543755  0.318296  0.694806  1
  Si  Si25  1  0.521554  0.736927  0.011573  1
  Si  Si26  1  0.578078  0.793803  0.546825  1
  Si  Si27  1  0.681704  0.456245  0.305194  1
  Si  Si28  1  0.818296  0.043755  0.805194  1
  Si  Si29  1  0.736927  0.521554  0.011573  1
  Si  Si30  1  0.706197  0.921922  0.046825  1
  Si  Si31  1  0.793803  0.578078  0.546825  1
  Si  Si32  1  0.763073  0.978446  0.511573  1
  Si  Si33  1  0.956245  0.181704  0.194806  1
  Si  Si34  1  0.921922  0.706197  0.046825  1
  Si  Si35  1  0.978446  0.763073  0.511573  1
  O  O36  1  0.003479  0.357633  0.825578  1
  O  O37  1  0.057547  0.057547  0.193537  1
  O  O38  1  0.098301  0.098301  0.502710  1
  O  O39  1  0.013264  0.723704  0.922275  1
  O  O40  1  0.031456  0.741878  0.665554  1
  O  O41  1  0.111695  0.336428  0.513830  1
  O  O42  1  0.163259  0.163259  0.914624  1
  O  O43  1  0.142367  0.496521  0.325578  1
  O  O44  1  0.093026  0.741869  0.409676  1
  O  O45  1  0.163572  0.388305  0.013830  1
  O  O46  1  0.156023  0.819752  0.166082  1
  O  O47  1  0.223704  0.513264  0.577725  1
  O  O48  1  0.180248  0.843977  0.833918  1
  O  O49  1  0.241878  0.531456  0.834446  1
  O  O50  1  0.241869  0.593026  0.090324  1
  O  O51  1  0.336428  0.111695  0.513830  1
  O  O52  1  0.357633  0.003479  0.825578  1
  O  O53  1  0.336741  0.336741  0.414624  1
  O  O54  1  0.258131  0.906974  0.590324  1
  O  O55  1  0.388305  0.163572  0.013830  1
  O  O56  1  0.258122  0.968544  0.334446  1
  O  O57  1  0.319752  0.656023  0.333918  1
  O  O58  1  0.276296  0.986736  0.077725  1
  O  O59  1  0.343977  0.680248  0.666082  1
  O  O60  1  0.401699  0.401699  0.002710  1
  O  O61  1  0.442453  0.442453  0.693537  1
  O  O62  1  0.496521  0.142367  0.325578  1
  O  O63  1  0.406974  0.758131  0.909676  1
  O  O64  1  0.513264  0.223704  0.577725  1
  O  O65  1  0.531456  0.241878  0.834446  1
  O  O66  1  0.468544  0.758122  0.165554  1
  O  O67  1  0.486736  0.776296  0.422275  1
  O  O68  1  0.593026  0.241869  0.090324  1
  O  O69  1  0.503479  0.857633  0.674422  1
  O  O70  1  0.557547  0.557547  0.306463  1
  O  O71  1  0.598301  0.598301  0.997290  1
  O  O72  1  0.656023  0.319752  0.333918  1
  O  O73  1  0.723704  0.013264  0.922275  1
  O  O74  1  0.680248  0.343977  0.666082  1
  O  O75  1  0.741878  0.031456  0.665554  1
  O  O76  1  0.611695  0.836428  0.986170  1
  O  O77  1  0.741869  0.093026  0.409676  1
  O  O78  1  0.663259  0.663259  0.585376  1
  O  O79  1  0.642367  0.996521  0.174422  1
  O  O80  1  0.663572  0.888305  0.486170  1
  O  O81  1  0.758131  0.406974  0.909676  1
  O  O82  1  0.758122  0.468544  0.165554  1
  O  O83  1  0.819752  0.156023  0.166082  1
  O  O84  1  0.776296  0.486736  0.422275  1
  O  O85  1  0.843977  0.180248  0.833918  1
  O  O86  1  0.836428  0.611695  0.986170  1
  O  O87  1  0.906974  0.258131  0.590324  1
  O  O88  1  0.857633  0.503479  0.674422  1
  O  O89  1  0.836741  0.836741  0.085376  1
  O  O90  1  0.888305  0.663572  0.486170  1
  O  O91  1  0.968544  0.258122  0.334446  1
  O  O92  1  0.986736  0.276296  0.077725  1
  O  O93  1  0.901699  0.901699  0.497290  1
  O  O94  1  0.942453  0.942453  0.806463  1
  O  O95  1  0.996521  0.642367  0.174422  1
