# generated using pymatgen
data_Li4Fe3Ni(PO4)4
_symmetry_space_group_name_H-M   'P 1'
_cell_length_a   4.74194444
_cell_length_b   10.37245274
_cell_length_c   6.06379954
_cell_angle_alpha   90.00000000
_cell_angle_beta   90.00000000
_cell_angle_gamma   90.31824110
_symmetry_Int_Tables_number   1
_chemical_formula_structural   Li4Fe3Ni(PO4)4
_chemical_formula_sum   'Li4 Fe3 Ni1 P4 O16'
_cell_volume   298.24698544
_cell_formula_units_Z   1
loop_
 _symmetry_equiv_pos_site_id
 _symmetry_equiv_pos_as_xyz
  1  'x, y, z'
loop_
 _atom_site_type_symbol
 _atom_site_label
 _atom_site_symmetry_multiplicity
 _atom_site_fract_x
 _atom_site_fract_y
 _atom_site_fract_z
 _atom_site_occupancy
  Li  Li0  1  0.999313  0.997517  0.000569  1
  Li  Li1  1  0.999313  0.997517  0.499431  1
  Li  Li2  1  0.499897  0.502912  0.501415  1
  Li  Li3  1  0.499897  0.502912  0.998585  1
  Fe  Fe4  1  0.475693  0.219456  0.750000  1
  Fe  Fe5  1  0.523609  0.779825  0.250000  1
  Fe  Fe6  1  0.973859  0.281699  0.250000  1
  Ni  Ni7  1  0.017189  0.721660  0.750000  1
  P  P8  1  0.083227  0.595266  0.250000  1
  P  P9  1  0.416156  0.094333  0.250000  1
  P  P10  1  0.581296  0.902997  0.750000  1
  P  P11  1  0.920403  0.408156  0.750000  1
  O  O12  1  0.206625  0.456608  0.250000  1
  O  O13  1  0.217463  0.665045  0.043976  1
  O  O14  1  0.217463  0.665045  0.456024  1
  O  O15  1  0.244044  0.404245  0.750000  1
  O  O16  1  0.256646  0.898246  0.750000  1
  O  O17  1  0.282899  0.164700  0.046098  1
  O  O18  1  0.282899  0.164700  0.453902  1
  O  O19  1  0.292604  0.955189  0.250000  1
  O  O20  1  0.702802  0.042329  0.750000  1
  O  O21  1  0.719373  0.832501  0.547681  1
  O  O22  1  0.719373  0.832501  0.952319  1
  O  O23  1  0.740261  0.096933  0.250000  1
  O  O24  1  0.758752  0.596868  0.250000  1
  O  O25  1  0.783988  0.336684  0.547040  1
  O  O26  1  0.783988  0.336684  0.952960  1
  O  O27  1  0.800968  0.547472  0.750000  1
