# generated using pymatgen
data_Li2TiFe3O8
_symmetry_space_group_name_H-M   'P 1'
_cell_length_a   5.92918785
_cell_length_b   5.94103117
_cell_length_c   9.58573608
_cell_angle_alpha   90.12061526
_cell_angle_beta   89.93957824
_cell_angle_gamma   120.06608824
_symmetry_Int_Tables_number   1
_chemical_formula_structural   Li2TiFe3O8
_chemical_formula_sum   'Li4 Ti2 Fe6 O16'
_cell_volume   292.22850377
_cell_formula_units_Z   2
loop_
 _symmetry_equiv_pos_site_id
 _symmetry_equiv_pos_as_xyz
  1  'x, y, z'
loop_
 _atom_site_type_symbol
 _atom_site_label
 _atom_site_symmetry_multiplicity
 _atom_site_fract_x
 _atom_site_fract_y
 _atom_site_fract_z
 _atom_site_occupancy
  Li  Li0  1  0.333768  0.669434  0.895645  1
  Li  Li1  1  0.999579  0.997859  0.994631  1
  Li  Li2  1  0.000421  0.998279  0.494631  1
  Li  Li3  1  0.666232  0.335666  0.395645  1
  Ti  Ti4  1  0.331590  0.663187  0.494800  1
  Ti  Ti5  1  0.668410  0.331597  0.994800  1
  Fe  Fe6  1  0.171214  0.829453  0.215158  1
  Fe  Fe7  1  0.170194  0.341483  0.214492  1
  Fe  Fe8  1  0.658698  0.828892  0.215906  1
  Fe  Fe9  1  0.341302  0.170196  0.715906  1
  Fe  Fe10  1  0.828786  0.658239  0.715158  1
  Fe  Fe11  1  0.829806  0.171290  0.714492  1
  O  O12  1  0.168053  0.831086  0.595007  1
  O  O13  1  0.038514  0.519011  0.342941  1
  O  O14  1  0.335877  0.668618  0.104339  1
  O  O15  1  0.000039  -0.000314  0.306303  1
  O  O16  1  0.999961  0.999647  0.806303  1
  O  O17  1  0.167515  0.336044  0.594364  1
  O  O18  1  0.479741  0.960686  0.342844  1
  O  O19  1  0.478634  0.520202  0.344013  1
  O  O20  1  0.338456  0.170444  0.093477  1
  O  O21  1  0.661544  0.831989  0.593477  1
  O  O22  1  0.520259  0.480946  0.842844  1
  O  O23  1  0.521366  0.041568  0.844013  1
  O  O24  1  0.664123  0.332742  0.604339  1
  O  O25  1  0.831947  0.663032  0.095007  1
  O  O26  1  0.961486  0.480497  0.842941  1
  O  O27  1  0.832485  0.168530  0.094364  1
