# generated using pymatgen
data_Sr3Li3Cu3(PO4)4
_symmetry_space_group_name_H-M   'P 1'
_cell_length_a   4.87419671
_cell_length_b   9.24462110
_cell_length_c   16.80139758
_cell_angle_alpha   84.54176681
_cell_angle_beta   89.99960756
_cell_angle_gamma   90.00020169
_symmetry_Int_Tables_number   1
_chemical_formula_structural   Sr3Li3Cu3(PO4)4
_chemical_formula_sum   'Sr6 Li6 Cu6 P8 O32'
_cell_volume   753.63996771
_cell_formula_units_Z   2
loop_
 _symmetry_equiv_pos_site_id
 _symmetry_equiv_pos_as_xyz
  1  'x, y, z'
loop_
 _atom_site_type_symbol
 _atom_site_label
 _atom_site_symmetry_multiplicity
 _atom_site_fract_x
 _atom_site_fract_y
 _atom_site_fract_z
 _atom_site_occupancy
  Sr  Sr0  1  0.987371  0.971758  0.231655  1
  Sr  Sr1  1  0.531853  0.541247  0.279424  1
  Sr  Sr2  1  0.512609  0.471732  0.731649  1
  Sr  Sr3  1  0.516701  0.499169  0.007427  1
  Sr  Sr4  1  0.968134  0.041245  0.779422  1
  Sr  Sr5  1  0.983309  0.999165  0.507420  1
  Li  Li6  1  0.074083  0.753364  0.714276  1
  Li  Li7  1  0.494886  0.814023  0.404253  1
  Li  Li8  1  0.989332  0.693625  0.100448  1
  Li  Li9  1  0.005078  0.314026  0.904249  1
  Li  Li10  1  0.425929  0.253373  0.214262  1
  Li  Li11  1  0.510723  0.193603  0.600440  1
  Cu  Cu12  1  0.552929  0.826552  0.895123  1
  Cu  Cu13  1  0.143111  0.643082  0.577545  1
  Cu  Cu14  1  0.497080  0.497964  0.503341  1
  Cu  Cu15  1  0.947060  0.326560  0.395139  1
  Cu  Cu16  1  0.356960  0.143078  0.077531  1
  Cu  Cu17  1  0.002972  0.997947  0.003357  1
  P  P18  1  0.526324  0.890294  0.656204  1
  P  P19  1  0.555380  0.839590  0.101006  1
  P  P20  1  0.040193  0.613723  0.848783  1
  P  P21  1  0.063905  0.666261  0.398474  1
  P  P22  1  0.944678  0.339595  0.601001  1
  P  P23  1  0.973707  0.390288  0.156192  1
  P  P24  1  0.436109  0.166256  0.898461  1
  P  P25  1  0.459781  0.113711  0.348789  1
  O  O26  1  0.436452  0.994357  0.582828  1
  O  O27  1  0.680901  0.999153  0.084872  1
  O  O28  1  0.427109  0.946551  0.734991  1
  O  O29  1  0.846232  0.886473  0.655043  1
  O  O30  1  0.241497  0.849661  0.112015  1
  O  O31  1  0.920407  0.771304  0.843359  1
  O  O32  1  0.694431  0.763358  0.177447  1
  O  O33  1  0.638923  0.752905  0.030498  1
  O  O34  1  0.158312  0.759850  0.466599  1
  O  O35  1  0.193952  0.740422  0.320550  1
  O  O36  1  0.406867  0.732469  0.651621  1
  O  O37  1  0.353585  0.615805  0.867673  1
  O  O38  1  0.008487  0.558817  0.763467  1
  O  O39  1  0.750511  0.661162  0.393424  1
  O  O40  1  0.893558  0.506372  0.910242  1
  O  O41  1  0.190855  0.507987  0.416318  1
  O  O42  1  0.819180  0.499145  0.584864  1
  O  O43  1  0.063601  0.494381  0.082831  1
  O  O44  1  0.258524  0.349626  0.611993  1
  O  O45  1  0.072914  0.446539  0.234994  1
  O  O46  1  0.653798  0.386478  0.155032  1
  O  O47  1  0.579595  0.271315  0.343352  1
  O  O48  1  0.805598  0.263340  0.677422  1
  O  O49  1  0.861076  0.252901  0.530467  1
  O  O50  1  0.341646  0.259857  0.966599  1
  O  O51  1  0.305990  0.240417  0.820546  1
  O  O52  1  0.093157  0.232486  0.151605  1
  O  O53  1  0.749414  0.161178  0.893413  1
  O  O54  1  0.146389  0.115809  0.367676  1
  O  O55  1  0.491468  0.058827  0.263462  1
  O  O56  1  0.309138  0.007979  0.916320  1
  O  O57  1  0.606406  0.006383  0.410227  1
