# generated using pymatgen
data_Sn(PO3)4
_symmetry_space_group_name_H-M   'P 1'
_cell_length_a   7.35834109
_cell_length_b   7.35834094
_cell_length_c   9.99749162
_cell_angle_alpha   82.83951105
_cell_angle_beta   68.69339301
_cell_angle_gamma   109.69194105
_symmetry_Int_Tables_number   1
_chemical_formula_structural   Sn(PO3)4
_chemical_formula_sum   'Sn2 P8 O24'
_cell_volume   455.59565162
_cell_formula_units_Z   2
loop_
 _symmetry_equiv_pos_site_id
 _symmetry_equiv_pos_as_xyz
  1  'x, y, z'
loop_
 _atom_site_type_symbol
 _atom_site_label
 _atom_site_symmetry_multiplicity
 _atom_site_fract_x
 _atom_site_fract_y
 _atom_site_fract_z
 _atom_site_occupancy
  Sn  Sn0  1  0.000000  0.500000  0.000000  1
  Sn  Sn1  1  0.000000  0.000000  0.500000  1
  P  P2  1  0.998514  0.322941  0.691387  1
  P  P3  1  0.273549  0.730246  0.470838  1
  P  P4  1  0.701084  0.744387  0.029162  1
  P  P5  1  0.485672  0.310099  0.191387  1
  P  P6  1  0.514328  0.689901  0.808613  1
  P  P7  1  0.298916  0.255613  0.970838  1
  P  P8  1  0.726451  0.269754  0.529162  1
  P  P9  1  0.001486  0.677059  0.308613  1
  O  O10  1  0.044511  0.661897  0.152322  1
  O  O11  1  0.133771  0.327098  0.068554  1
  O  O12  1  0.195599  0.668209  0.340254  1
  O  O13  1  0.104347  0.797674  0.568554  1
  O  O14  1  0.210432  0.507738  0.571610  1
  O  O15  1  0.029710  0.133727  0.665263  1
  O  O16  1  0.503278  0.847424  0.408317  1
  O  O17  1  0.420652  0.217958  0.071610  1
  O  O18  1  0.314219  0.196833  0.347678  1
  O  O19  1  0.508463  0.535853  0.159746  1
  O  O20  1  0.298991  0.694973  0.834737  1
  O  O21  1  0.755741  0.911595  0.091683  1
  O  O22  1  0.244259  0.088405  0.908317  1
  O  O23  1  0.701009  0.305027  0.165263  1
  O  O24  1  0.491537  0.464147  0.840254  1
  O  O25  1  0.685781  0.803167  0.652322  1
  O  O26  1  0.579348  0.782042  0.928390  1
  O  O27  1  0.496722  0.152576  0.591683  1
  O  O28  1  0.970290  0.866273  0.334737  1
  O  O29  1  0.789568  0.492262  0.428390  1
  O  O30  1  0.895653  0.202326  0.431446  1
  O  O31  1  0.804401  0.331791  0.659746  1
  O  O32  1  0.866229  0.672902  0.931446  1
  O  O33  1  0.955489  0.338103  0.847678  1
