# generated using pymatgen
data_Fe2OF3
_symmetry_space_group_name_H-M   'P 1'
_cell_length_a   4.93965198
_cell_length_b   10.52827959
_cell_length_c   6.05150119
_cell_angle_alpha   89.99896248
_cell_angle_beta   89.99677385
_cell_angle_gamma   90.00679903
_symmetry_Int_Tables_number   1
_chemical_formula_structural   Fe2OF3
_chemical_formula_sum   'Fe8 O4 F12'
_cell_volume   314.71459292
_cell_formula_units_Z   4
loop_
 _symmetry_equiv_pos_site_id
 _symmetry_equiv_pos_as_xyz
  1  'x, y, z'
loop_
 _atom_site_type_symbol
 _atom_site_label
 _atom_site_symmetry_multiplicity
 _atom_site_fract_x
 _atom_site_fract_y
 _atom_site_fract_z
 _atom_site_occupancy
  Fe  Fe0  1  -0.000016  0.000052  0.000091  1
  Fe  Fe1  1  -0.000027  0.000046  0.499910  1
  Fe  Fe2  1  0.012492  0.739729  0.749991  1
  Fe  Fe3  1  0.487544  0.239696  0.749998  1
  Fe  Fe4  1  0.499953  0.499972  0.999963  1
  Fe  Fe5  1  0.499966  0.499963  0.500033  1
  Fe  Fe6  1  0.512496  0.760271  0.249990  1
  Fe  Fe7  1  0.987501  0.260293  0.249992  1
  O  O8  1  0.168885  0.924028  0.749997  1
  O  O9  1  0.331167  0.423955  0.750012  1
  O  O10  1  0.668805  0.575992  0.249991  1
  O  O11  1  0.831183  0.075995  0.250013  1
  F  F12  1  0.260873  0.415391  0.250011  1
  F  F13  1  0.266823  0.663436  0.992681  1
  F  F14  1  0.266818  0.663432  0.507300  1
  F  F15  1  0.233179  0.163496  0.507269  1
  F  F16  1  0.233196  0.163478  0.992729  1
  F  F17  1  0.239085  0.915388  0.249987  1
  F  F18  1  0.760949  0.084612  0.750023  1
  F  F19  1  0.766866  0.836541  0.492725  1
  F  F20  1  0.766837  0.836540  0.007302  1
  F  F21  1  0.733178  0.336535  0.007290  1
  F  F22  1  0.733181  0.336548  0.492714  1
  F  F23  1  0.739066  0.584609  0.749989  1
