# generated using pymatgen
data_Li3Bi3P8O29
_symmetry_space_group_name_H-M   'P 1'
_cell_length_a   10.09550074
_cell_length_b   10.09411740
_cell_length_c   14.36756148
_cell_angle_alpha   89.38355700
_cell_angle_beta   89.38846588
_cell_angle_gamma   60.27173109
_symmetry_Int_Tables_number   1
_chemical_formula_structural   Li3Bi3P8O29
_chemical_formula_sum   'Li6 Bi6 P16 O58'
_cell_volume   1271.33273592
_cell_formula_units_Z   2
loop_
 _symmetry_equiv_pos_site_id
 _symmetry_equiv_pos_as_xyz
  1  'x, y, z'
loop_
 _atom_site_type_symbol
 _atom_site_label
 _atom_site_symmetry_multiplicity
 _atom_site_fract_x
 _atom_site_fract_y
 _atom_site_fract_z
 _atom_site_occupancy
  Li  Li0  1  0.000002  0.999991  0.500001  1
  Li  Li1  1  0.999998  0.000011  0.000001  1
  Li  Li2  1  0.087327  0.678801  0.053841  1
  Li  Li3  1  0.679067  0.087124  0.553821  1
  Li  Li4  1  0.320907  0.912892  0.446180  1
  Li  Li5  1  0.912711  0.321179  0.946156  1
  Bi  Bi6  1  0.000713  0.435036  0.740264  1
  Bi  Bi7  1  0.999268  0.564968  0.259730  1
  Bi  Bi8  1  0.435133  0.000565  0.240398  1
  Bi  Bi9  1  0.564884  0.999419  0.759602  1
  Bi  Bi10  1  0.438816  0.561120  0.749929  1
  Bi  Bi11  1  0.561187  0.438887  0.250073  1
  P  P12  1  0.078895  0.212062  0.343678  1
  P  P13  1  0.212042  0.078822  0.843675  1
  P  P14  1  0.083693  0.690330  0.844602  1
  P  P15  1  0.329577  0.338910  0.123156  1
  P  P16  1  0.338777  0.329688  0.622941  1
  P  P17  1  0.219986  0.702964  0.347016  1
  P  P18  1  0.297045  0.780010  0.153016  1
  P  P19  1  0.690380  0.083654  0.344628  1
  P  P20  1  0.309616  0.916341  0.655368  1
  P  P21  1  0.702980  0.219995  0.846977  1
  P  P22  1  0.780006  0.297047  0.652968  1
  P  P23  1  0.670409  0.661098  0.876803  1
  P  P24  1  0.661208  0.670318  0.377105  1
  P  P25  1  0.916325  0.309653  0.155398  1
  P  P26  1  0.787967  0.921168  0.156323  1
  P  P27  1  0.921138  0.787953  0.656305  1
  O  O28  1  0.010839  0.208236  0.243167  1
  O  O29  1  0.991661  0.226506  0.067313  1
  O  O30  1  0.074662  0.246673  0.842325  1
  O  O31  1  0.208208  0.010823  0.743132  1
  O  O32  1  0.226356  0.991776  0.567282  1
  O  O33  1  0.246671  0.074669  0.342340  1
  O  O34  1  0.085339  0.362775  0.349813  1
  O  O35  1  0.207882  0.300645  0.659862  1
  O  O36  1  0.097218  0.530946  0.837105  1
  O  O37  1  0.004826  0.817947  0.580587  1
  O  O38  1  0.989182  0.791759  0.756830  1
  O  O39  1  0.076422  0.683886  0.351138  1
  O  O40  1  0.300585  0.208001  0.160357  1
  O  O41  1  0.362766  0.085365  0.849734  1
  O  O42  1  0.192597  0.495997  0.160051  1
  O  O43  1  0.327819  0.350078  0.019276  1
  O  O44  1  0.350052  0.327961  0.518785  1
  O  O45  1  0.310323  0.481977  0.668928  1
  O  O46  1  0.531051  0.097159  0.337164  1
  O  O47  1  0.495916  0.192618  0.659645  1
  O  O48  1  0.244832  0.675130  0.841242  1
  O  O49  1  0.212434  0.787607  0.250018  1
  O  O50  1  0.194088  0.788736  0.076389  1
  O  O51  1  0.211155  0.805949  0.423653  1
  O  O52  1  0.364715  0.541922  0.344481  1
  O  O53  1  0.481944  0.310422  0.169236  1
  O  O54  1  0.324835  0.755193  0.658664  1
  O  O55  1  0.541906  0.364683  0.844403  1
  O  O56  1  0.683914  0.076379  0.851119  1
  O  O57  1  0.182142  0.995110  0.919358  1
  O  O58  1  0.817892  0.004891  0.080639  1
  O  O59  1  0.791780  0.989177  0.256866  1
  O  O60  1  0.316097  0.923622  0.148870  1
  O  O61  1  0.458112  0.635325  0.155589  1
  O  O62  1  0.675161  0.244802  0.341333  1
  O  O63  1  0.518070  0.689570  0.830791  1
  O  O64  1  0.635285  0.458098  0.655521  1
  O  O65  1  0.788825  0.194069  0.576340  1
  O  O66  1  0.805936  0.211252  0.923596  1
  O  O67  1  0.787588  0.212396  0.749971  1
  O  O68  1  0.755179  0.324864  0.158760  1
  O  O69  1  0.504069  0.807387  0.340363  1
  O  O70  1  0.468946  0.902848  0.662834  1
  O  O71  1  0.689668  0.518005  0.331089  1
  O  O72  1  0.672199  0.649888  0.980789  1
  O  O73  1  0.649939  0.672059  0.481206  1
  O  O74  1  0.807397  0.504010  0.839965  1
  O  O75  1  0.637251  0.914648  0.150248  1
  O  O76  1  0.699399  0.792002  0.839684  1
  O  O77  1  0.923591  0.316111  0.648834  1
  O  O78  1  0.995183  0.182050  0.419426  1
  O  O79  1  0.902801  0.469031  0.162877  1
  O  O80  1  0.792123  0.699353  0.340144  1
  O  O81  1  0.914654  0.637230  0.650184  1
  O  O82  1  0.753337  0.925358  0.657661  1
  O  O83  1  0.773633  0.008218  0.432720  1
  O  O84  1  0.925335  0.753331  0.157667  1
  O  O85  1  0.008357  0.773470  0.932683  1
