# generated using pymatgen
data_Li4Mn3Nb2Co3O16
_symmetry_space_group_name_H-M   'P 1'
_cell_length_a   5.96553168
_cell_length_b   5.87162093
_cell_length_c   9.70678849
_cell_angle_alpha   89.77522369
_cell_angle_beta   91.31807421
_cell_angle_gamma   119.28327274
_symmetry_Int_Tables_number   1
_chemical_formula_structural   Li4Mn3Nb2Co3O16
_chemical_formula_sum   'Li4 Mn3 Nb2 Co3 O16'
_cell_volume   296.46578459
_cell_formula_units_Z   1
loop_
 _symmetry_equiv_pos_site_id
 _symmetry_equiv_pos_as_xyz
  1  'x, y, z'
loop_
 _atom_site_type_symbol
 _atom_site_label
 _atom_site_symmetry_multiplicity
 _atom_site_fract_x
 _atom_site_fract_y
 _atom_site_fract_z
 _atom_site_occupancy
  Li  Li0  1  0.315794  0.660279  0.899998  1
  Li  Li1  1  0.990837  0.995530  0.992832  1
  Li  Li2  1  0.015961  0.004931  0.489931  1
  Li  Li3  1  0.674054  0.338783  0.402801  1
  Mn  Mn4  1  0.654029  0.825500  0.215364  1
  Mn  Mn5  1  0.833258  0.663564  0.716588  1
  Mn  Mn6  1  0.833805  0.169214  0.715998  1
  Nb  Nb7  1  0.337305  0.668857  0.491243  1
  Nb  Nb8  1  0.628243  0.312078  0.993721  1
  Co  Co9  1  0.162546  0.824132  0.213547  1
  Co  Co10  1  0.160408  0.338406  0.215262  1
  Co  Co11  1  0.346866  0.173032  0.714748  1
  O  O12  1  0.210267  0.863980  0.592364  1
  O  O13  1  0.044652  0.534913  0.352569  1
  O  O14  1  0.331270  0.676593  0.113574  1
  O  O15  1  0.992562  0.985367  0.300342  1
  O  O16  1  0.017703  0.007707  0.803867  1
  O  O17  1  0.207230  0.345366  0.590110  1
  O  O18  1  0.510156  0.971097  0.338058  1
  O  O19  1  0.507155  0.539279  0.339331  1
  O  O20  1  0.316319  0.147843  0.096635  1
  O  O21  1  0.692735  0.846982  0.595021  1
  O  O22  1  0.491554  0.461894  0.843945  1
  O  O23  1  0.493767  0.030469  0.843235  1
  O  O24  1  0.664962  0.333093  0.615414  1
  O  O25  1  0.806083  0.660178  0.091200  1
  O  O26  1  0.954386  0.476322  0.839787  1
  O  O27  1  0.806090  0.144909  0.090352  1
