# generated using pymatgen
data_Mn3Cr5O16
_symmetry_space_group_name_H-M   'P 1'
_cell_length_a   5.82433955
_cell_length_b   5.81280555
_cell_length_c   8.87886715
_cell_angle_alpha   90.00634394
_cell_angle_beta   90.20768340
_cell_angle_gamma   119.93695257
_symmetry_Int_Tables_number   1
_chemical_formula_structural   Mn3Cr5O16
_chemical_formula_sum   'Mn3 Cr5 O16'
_cell_volume   260.49075312
_cell_formula_units_Z   1
loop_
 _symmetry_equiv_pos_site_id
 _symmetry_equiv_pos_as_xyz
  1  'x, y, z'
loop_
 _atom_site_type_symbol
 _atom_site_label
 _atom_site_symmetry_multiplicity
 _atom_site_fract_x
 _atom_site_fract_y
 _atom_site_fract_z
 _atom_site_occupancy
  Mn  Mn0  1  0.657357  0.828696  0.212958  1
  Mn  Mn1  1  0.829920  0.661776  0.711665  1
  Mn  Mn2  1  0.829933  0.168161  0.711664  1
  Cr  Cr3  1  0.160596  0.831460  0.207185  1
  Cr  Cr4  1  0.339803  0.669884  0.488673  1
  Cr  Cr5  1  0.160574  0.329140  0.207036  1
  Cr  Cr6  1  0.328244  0.164140  0.704241  1
  Cr  Cr7  1  0.666084  0.333089  0.986689  1
  O  O8  1  0.172484  0.834334  0.604387  1
  O  O9  1  0.055335  0.527671  0.336876  1
  O  O10  1  0.338540  0.669337  0.098455  1
  O  O11  1  0.991405  0.995697  0.317034  1
  O  O12  1  0.992474  0.996270  0.816606  1
  O  O13  1  0.172497  0.338132  0.604409  1
  O  O14  1  0.476861  0.954380  0.339251  1
  O  O15  1  0.476753  0.522470  0.339199  1
  O  O16  1  0.344667  0.172318  0.107417  1
  O  O17  1  0.661468  0.830714  0.601151  1
  O  O18  1  0.523534  0.476349  0.837702  1
  O  O19  1  0.523529  0.047259  0.837697  1
  O  O20  1  0.674253  0.337110  0.599227  1
  O  O21  1  0.833104  0.661246  0.103906  1
  O  O22  1  0.957423  0.478749  0.838414  1
  O  O23  1  0.833161  0.171815  0.103882  1
