# generated using pymatgen
data_LiP2WO7
_symmetry_space_group_name_H-M   'P 1'
_cell_length_a   7.16093572
_cell_length_b   8.62447070
_cell_length_c   4.99063417
_cell_angle_alpha   90.00000000
_cell_angle_beta   70.64829921
_cell_angle_gamma   90.00000000
_symmetry_Int_Tables_number   1
_chemical_formula_structural   LiP2WO7
_chemical_formula_sum   'Li2 P4 W2 O14'
_cell_volume   290.80437626
_cell_formula_units_Z   2
loop_
 _symmetry_equiv_pos_site_id
 _symmetry_equiv_pos_as_xyz
  1  'x, y, z'
loop_
 _atom_site_type_symbol
 _atom_site_label
 _atom_site_symmetry_multiplicity
 _atom_site_fract_x
 _atom_site_fract_y
 _atom_site_fract_z
 _atom_site_occupancy
  Li  Li0  1  0.324477  0.612006  0.199928  1
  Li  Li1  1  0.675523  0.112006  0.800072  1
  P  P2  1  0.079457  0.038353  0.794791  1
  P  P3  1  0.530387  0.433174  0.597334  1
  P  P4  1  0.469613  0.933174  0.402666  1
  P  P5  1  0.920543  0.538353  0.205209  1
  W  W6  1  0.273426  0.252632  0.213727  1
  W  W7  1  0.726574  0.752632  0.786273  1
  O  O8  1  0.077157  0.185565  0.624826  1
  O  O9  1  0.240186  0.914503  0.596765  1
  O  O10  1  0.118144  0.453855  0.138475  1
  O  O11  1  0.133180  0.069365  0.060027  1
  O  O12  1  0.494719  0.290340  0.791789  1
  O  O13  1  0.505805  0.585962  0.763140  1
  O  O14  1  0.404726  0.435091  0.401009  1
  O  O15  1  0.595274  0.935091  0.598991  1
  O  O16  1  0.494195  0.085962  0.236860  1
  O  O17  1  0.505281  0.790340  0.208211  1
  O  O18  1  0.866820  0.569365  0.939973  1
  O  O19  1  0.881856  0.953855  0.861525  1
  O  O20  1  0.759814  0.414503  0.403235  1
  O  O21  1  0.922843  0.685565  0.375174  1
