# generated using pymatgen
data_Li3Mn5(CoO6)2
_symmetry_space_group_name_H-M   'P 1'
_cell_length_a   5.17537329
_cell_length_b   5.17537339
_cell_length_c   29.67333725
_cell_angle_alpha   84.59037218
_cell_angle_beta   95.40962971
_cell_angle_gamma   60.51770282
_symmetry_Int_Tables_number   1
_chemical_formula_structural   Li3Mn5(CoO6)2
_chemical_formula_sum   'Li9 Mn15 Co6 O36'
_cell_volume   679.65036482
_cell_formula_units_Z   3
loop_
 _symmetry_equiv_pos_site_id
 _symmetry_equiv_pos_as_xyz
  1  'x, y, z'
loop_
 _atom_site_type_symbol
 _atom_site_label
 _atom_site_symmetry_multiplicity
 _atom_site_fract_x
 _atom_site_fract_y
 _atom_site_fract_z
 _atom_site_occupancy
  Li  Li0  1  0.159057  0.657903  0.501303  1
  Li  Li1  1  0.657903  0.159057  0.998697  1
  Li  Li2  1  0.156889  0.661342  0.167581  1
  Li  Li3  1  0.333215  0.839159  0.664398  1
  Li  Li4  1  0.661342  0.156889  0.332419  1
  Li  Li5  1  0.839159  0.333215  0.835602  1
  Li  Li6  1  0.930598  0.918762  0.916621  1
  Li  Li7  1  0.918762  0.930598  0.583379  1
  Li  Li8  1  0.930083  0.930083  0.250000  1
  Mn  Mn9  1  0.075250  0.075250  0.750000  1
  Mn  Mn10  1  0.072253  0.070048  0.416709  1
  Mn  Mn11  1  0.070048  0.072253  0.083291  1
  Mn  Mn12  1  0.414355  0.414355  0.750000  1
  Mn  Mn13  1  0.416806  0.414414  0.416750  1
  Mn  Mn14  1  0.581260  0.592156  0.916449  1
  Mn  Mn15  1  0.414414  0.416806  0.083250  1
  Mn  Mn16  1  0.592156  0.581260  0.583551  1
  Mn  Mn17  1  0.497599  0.007108  0.834924  1
  Mn  Mn18  1  0.589027  0.589027  0.250000  1
  Mn  Mn19  1  0.994674  0.519536  0.997984  1
  Mn  Mn20  1  0.519536  0.994674  0.502016  1
  Mn  Mn21  1  0.007108  0.497599  0.665076  1
  Mn  Mn22  1  0.514774  0.999626  0.168556  1
  Mn  Mn23  1  0.999626  0.514774  0.331444  1
  Co  Co24  1  0.260470  0.262439  0.916413  1
  Co  Co25  1  0.262439  0.260470  0.583587  1
  Co  Co26  1  0.257487  0.257487  0.250000  1
  Co  Co27  1  0.748447  0.748447  0.750000  1
  Co  Co28  1  0.742174  0.739327  0.416668  1
  Co  Co29  1  0.739327  0.742174  0.083332  1
  O  O30  1  0.141369  0.336982  0.792293  1
  O  O31  1  0.068100  0.749165  0.710430  1
  O  O32  1  0.336982  0.141369  0.707707  1
  O  O33  1  0.311482  0.520277  0.951996  1
  O  O34  1  0.174287  0.338758  0.457452  1
  O  O35  1  0.005973  0.789165  0.374525  1
  O  O36  1  0.340601  0.171288  0.376038  1
  O  O37  1  0.299904  0.538675  0.618045  1
  O  O38  1  0.538675  0.299904  0.881955  1
  O  O39  1  0.171288  0.340601  0.123962  1
  O  O40  1  0.242374  0.978957  0.880239  1
  O  O41  1  0.003337  0.792554  0.041302  1
  O  O42  1  0.338758  0.174287  0.042548  1
  O  O43  1  0.749165  0.068100  0.789570  1
  O  O44  1  0.435621  0.732782  0.786023  1
  O  O45  1  0.317516  0.512547  0.285828  1
  O  O46  1  0.520277  0.311482  0.548004  1
  O  O47  1  0.267129  0.953802  0.546556  1
  O  O48  1  0.792554  0.003337  0.458698  1
  O  O49  1  0.732782  0.435621  0.713977  1
  O  O50  1  0.650678  0.845290  0.956580  1
  O  O51  1  0.422830  0.721675  0.451770  1
  O  O52  1  0.953802  0.267129  0.953444  1
  O  O53  1  0.512547  0.317516  0.214172  1
  O  O54  1  0.258802  0.957206  0.213269  1
  O  O55  1  0.824385  0.643592  0.874908  1
  O  O56  1  0.789165  0.005973  0.125475  1
  O  O57  1  0.724260  0.420102  0.381509  1
  O  O58  1  0.643592  0.824385  0.625092  1
  O  O59  1  0.420102  0.724260  0.118491  1
  O  O60  1  0.978957  0.242374  0.619761  1
  O  O61  1  0.845290  0.650678  0.543420  1
  O  O62  1  0.721675  0.422830  0.048230  1
  O  O63  1  0.655542  0.840290  0.290208  1
  O  O64  1  0.957206  0.258802  0.286731  1
  O  O65  1  0.840290  0.655542  0.209792  1
