# generated using pymatgen
data_Li2Cu5F12
_symmetry_space_group_name_H-M   'P 1'
_cell_length_a   7.15198777
_cell_length_b   7.23774113
_cell_length_c   8.82290552
_cell_angle_alpha   90.00265250
_cell_angle_beta   89.99860765
_cell_angle_gamma   89.31647975
_symmetry_Int_Tables_number   1
_chemical_formula_structural   Li2Cu5F12
_chemical_formula_sum   'Li4 Cu10 F24'
_cell_volume   456.67846534
_cell_formula_units_Z   2
loop_
 _symmetry_equiv_pos_site_id
 _symmetry_equiv_pos_as_xyz
  1  'x, y, z'
loop_
 _atom_site_type_symbol
 _atom_site_label
 _atom_site_symmetry_multiplicity
 _atom_site_fract_x
 _atom_site_fract_y
 _atom_site_fract_z
 _atom_site_occupancy
  Li  Li0  1  0.000005  0.000014  0.000009  1
  Li  Li1  1  0.249962  0.750025  0.919917  1
  Li  Li2  1  0.500006  0.500140  0.000013  1
  Li  Li3  1  0.749962  0.249962  0.079889  1
  Cu  Cu4  1  0.000058  0.500033  0.500009  1
  Cu  Cu5  1  0.001240  0.000316  0.670508  1
  Cu  Cu6  1  0.019491  0.507747  0.169071  1
  Cu  Cu7  1  0.480490  0.992127  0.169092  1
  Cu  Cu8  1  0.499957  0.000041  0.500010  1
  Cu  Cu9  1  0.498793  0.499659  0.670491  1
  Cu  Cu10  1  0.501290  0.500282  0.329494  1
  Cu  Cu11  1  0.519475  0.007765  0.830945  1
  Cu  Cu12  1  0.980544  0.492269  0.830945  1
  Cu  Cu13  1  0.998707  0.999717  0.329486  1
  F  F14  1  0.004415  0.324371  0.330524  1
  F  F15  1  0.000422  0.316505  0.663487  1
  F  F16  1  0.011494  0.681297  0.996516  1
  F  F17  1  0.178058  0.989394  0.166966  1
  F  F18  1  0.178387  0.997192  0.500432  1
  F  F19  1  0.186112  0.978673  0.833202  1
  F  F20  1  0.313891  0.521357  0.833157  1
  F  F21  1  0.321616  0.502831  0.500429  1
  F  F22  1  0.321916  0.510520  0.166992  1
  F  F23  1  0.488404  0.818577  0.996571  1
  F  F24  1  0.499556  0.183629  0.663454  1
  F  F25  1  0.495541  0.175581  0.330467  1
  F  F26  1  0.500408  0.816375  0.336620  1
  F  F27  1  0.504395  0.824419  0.669518  1
  F  F28  1  0.511473  0.181247  0.003455  1
  F  F29  1  0.678136  0.489417  0.833024  1
  F  F30  1  0.678472  0.497166  0.499550  1
  F  F31  1  0.686166  0.478580  0.166811  1
  F  F32  1  0.813819  0.021379  0.166798  1
  F  F33  1  0.821565  0.002898  0.499560  1
  F  F34  1  0.821905  0.010558  0.833061  1
  F  F35  1  0.988527  0.318697  0.003484  1
  F  F36  1  0.999611  0.683555  0.336524  1
  F  F37  1  0.995728  0.675685  0.669508  1
