# generated using pymatgen
data_LiFe(SO4)2
_symmetry_space_group_name_H-M   'P 1'
_cell_length_a   9.24197344
_cell_length_b   9.07578001
_cell_length_c   13.77898502
_cell_angle_alpha   90.00000000
_cell_angle_beta   90.31853309
_cell_angle_gamma   90.00000000
_symmetry_Int_Tables_number   1
_chemical_formula_structural   LiFe(SO4)2
_chemical_formula_sum   'Li8 Fe8 S16 O64'
_cell_volume   1155.73746821
_cell_formula_units_Z   8
loop_
 _symmetry_equiv_pos_site_id
 _symmetry_equiv_pos_as_xyz
  1  'x, y, z'
loop_
 _atom_site_type_symbol
 _atom_site_label
 _atom_site_symmetry_multiplicity
 _atom_site_fract_x
 _atom_site_fract_y
 _atom_site_fract_z
 _atom_site_occupancy
  Li  Li0  1  0.054442  0.206933  0.378337  1
  Li  Li1  1  0.054442  0.293067  0.878337  1
  Li  Li2  1  0.443935  0.713497  0.371994  1
  Li  Li3  1  0.443935  0.786503  0.871994  1
  Li  Li4  1  0.769057  0.447502  0.126641  1
  Li  Li5  1  0.769057  0.052498  0.626641  1
  Li  Li6  1  0.958375  0.771930  0.626414  1
  Li  Li7  1  0.958375  0.728070  0.126414  1
  Fe  Fe8  1  0.147055  0.102312  0.125018  1
  Fe  Fe9  1  0.147055  0.397688  0.625018  1
  Fe  Fe10  1  0.359767  0.603832  0.125240  1
  Fe  Fe11  1  0.359767  0.896168  0.625240  1
  Fe  Fe12  1  0.635700  0.106487  0.372648  1
  Fe  Fe13  1  0.635700  0.393513  0.872648  1
  Fe  Fe14  1  0.860209  0.603729  0.375700  1
  Fe  Fe15  1  0.860209  0.896271  0.875700  1
  S  S16  1  0.075775  0.064374  0.725273  1
  S  S17  1  0.075775  0.435626  0.225273  1
  S  S18  1  0.161844  0.685148  0.488720  1
  S  S19  1  0.161844  0.814852  0.988720  1
  S  S20  1  0.340819  0.184368  0.490372  1
  S  S21  1  0.340819  0.315632  0.990372  1
  S  S22  1  0.425795  0.933528  0.221256  1
  S  S23  1  0.425795  0.566472  0.721256  1
  S  S24  1  0.573916  0.435615  0.277206  1
  S  S25  1  0.573916  0.064385  0.777206  1
  S  S26  1  0.662031  0.686061  0.010965  1
  S  S27  1  0.662031  0.813939  0.510965  1
  S  S28  1  0.841249  0.185144  0.009385  1
  S  S29  1  0.841249  0.314856  0.509385  1
  S  S30  1  0.922407  0.563613  0.776725  1
  S  S31  1  0.922407  0.936387  0.276725  1
  O  O32  1  0.000582  0.700254  0.473116  1
  O  O33  1  0.000582  0.799746  0.973116  1
  O  O34  1  0.015726  0.996196  0.351991  1
  O  O35  1  0.015726  0.503804  0.851991  1
  O  O36  1  0.019797  0.470721  0.325232  1
  O  O37  1  0.019797  0.029279  0.825232  1
  O  O38  1  0.079646  0.229829  0.722098  1
  O  O39  1  0.079646  0.270171  0.222098  1
  O  O40  1  0.187069  0.724917  0.079895  1
  O  O41  1  0.187069  0.775083  0.579895  1
  O  O42  1  0.197372  0.970489  0.012864  1
  O  O43  1  0.197372  0.529511  0.512864  1
  O  O44  1  0.223952  0.003732  0.717753  1
  O  O45  1  0.223952  0.496268  0.217753  1
  O  O46  1  0.243509  0.734849  0.406478  1
  O  O47  1  0.243509  0.765151  0.906478  1
  O  O48  1  0.254730  0.228498  0.407029  1
  O  O49  1  0.254730  0.271502  0.907029  1
  O  O50  1  0.273649  0.992763  0.217264  1
  O  O51  1  0.273649  0.507237  0.717264  1
  O  O52  1  0.306128  0.027469  0.516366  1
  O  O53  1  0.306128  0.472531  0.016366  1
  O  O54  1  0.309450  0.225426  0.079146  1
  O  O55  1  0.309450  0.274574  0.579146  1
  O  O56  1  0.413760  0.765044  0.222850  1
  O  O57  1  0.413760  0.734956  0.722850  1
  O  O58  1  0.481129  0.534398  0.823489  1
  O  O59  1  0.481129  0.965602  0.323489  1
  O  O60  1  0.487110  0.502019  0.351941  1
  O  O61  1  0.487110  0.997981  0.851941  1
  O  O62  1  0.498644  0.197207  0.470773  1
  O  O63  1  0.498644  0.302793  0.970773  1
  O  O64  1  0.503050  0.702306  0.026152  1
  O  O65  1  0.503050  0.797694  0.526152  1
  O  O66  1  0.516792  0.511846  0.645900  1
  O  O67  1  0.516792  0.988154  0.145900  1
  O  O68  1  0.522857  0.473799  0.175692  1
  O  O69  1  0.522857  0.026201  0.675692  1
  O  O70  1  0.579148  0.271972  0.281394  1
  O  O71  1  0.579148  0.228028  0.781394  1
  O  O72  1  0.691378  0.726513  0.420537  1
  O  O73  1  0.691378  0.773487  0.920537  1
  O  O74  1  0.697737  0.527387  0.989342  1
  O  O75  1  0.697737  0.972613  0.489342  1
  O  O76  1  0.729221  0.492538  0.278372  1
  O  O77  1  0.729221  0.007463  0.778372  1
  O  O78  1  0.748020  0.729478  0.094872  1
  O  O79  1  0.748020  0.770522  0.594872  1
  O  O80  1  0.763746  0.238896  0.093061  1
  O  O81  1  0.763746  0.261104  0.593061  1
  O  O82  1  0.771914  0.506241  0.783052  1
  O  O83  1  0.771914  0.993759  0.283052  1
  O  O84  1  0.801563  0.470213  0.485954  1
  O  O85  1  0.801563  0.029787  0.985954  1
  O  O86  1  0.812371  0.224336  0.418824  1
  O  O87  1  0.812371  0.275664  0.918824  1
  O  O88  1  0.916886  0.731276  0.778683  1
  O  O89  1  0.916886  0.768724  0.278683  1
  O  O90  1  0.979045  0.531904  0.675900  1
  O  O91  1  0.979045  0.968096  0.175900  1
  O  O92  1  0.979592  0.002240  0.650195  1
  O  O93  1  0.979592  0.497760  0.150195  1
  O  O94  1  0.002947  0.196330  0.022974  1
  O  O95  1  0.002947  0.303670  0.522974  1
