# generated using pymatgen
data_Li4Cr3(CoO4)3
_symmetry_space_group_name_H-M   'P 1'
_cell_length_a   6.59316159
_cell_length_b   5.92258638
_cell_length_c   5.84526783
_cell_angle_alpha   90.38419822
_cell_angle_beta   102.91706936
_cell_angle_gamma   75.88122784
_symmetry_Int_Tables_number   1
_chemical_formula_structural   Li4Cr3(CoO4)3
_chemical_formula_sum   'Li4 Cr3 Co3 O12'
_cell_volume   215.47666202
_cell_formula_units_Z   1
loop_
 _symmetry_equiv_pos_site_id
 _symmetry_equiv_pos_as_xyz
  1  'x, y, z'
loop_
 _atom_site_type_symbol
 _atom_site_label
 _atom_site_symmetry_multiplicity
 _atom_site_fract_x
 _atom_site_fract_y
 _atom_site_fract_z
 _atom_site_occupancy
  Li  Li0  1  0.991309  0.010586  0.008900  1
  Li  Li1  1  0.675358  0.322747  0.657766  1
  Li  Li2  1  0.333333  0.666667  0.333333  1
  Li  Li3  1  0.333333  0.666667  0.833333  1
  Cr  Cr4  1  0.333333  0.166667  0.833333  1
  Cr  Cr5  1  0.997267  0.498891  0.498571  1
  Cr  Cr6  1  0.669400  0.834443  0.168095  1
  Co  Co7  1  0.333333  0.166667  0.333333  1
  Co  Co8  1  0.996887  0.499946  0.997941  1
  Co  Co9  1  0.669780  0.833388  0.668726  1
  O  O10  1  0.020034  0.275395  0.238403  1
  O  O11  1  0.008905  0.276674  0.764777  1
  O  O12  1  0.646633  0.057938  0.428263  1
  O  O13  1  0.301229  0.412394  0.072261  1
  O  O14  1  0.657762  0.056659  0.901889  1
  O  O15  1  0.321498  0.407018  0.585948  1
  O  O16  1  0.677652  0.612086  0.432105  1
  O  O17  1  0.345169  0.926315  0.080718  1
  O  O18  1  0.687266  0.607733  0.908638  1
  O  O19  1  0.365438  0.920940  0.594406  1
  O  O20  1  0.989015  0.721247  0.234562  1
  O  O21  1  0.979401  0.725600  0.758029  1
