# generated using pymatgen
data_KLiTi2(PO5)2
_symmetry_space_group_name_H-M   'P 1'
_cell_length_a   12.81447589
_cell_length_b   6.50799488
_cell_length_c   10.69698238
_cell_angle_alpha   90.00000000
_cell_angle_beta   90.00000000
_cell_angle_gamma   90.00000000
_symmetry_Int_Tables_number   1
_chemical_formula_structural   KLiTi2(PO5)2
_chemical_formula_sum   'K4 Li4 Ti8 P8 O40'
_cell_volume   892.09135618
_cell_formula_units_Z   4
loop_
 _symmetry_equiv_pos_site_id
 _symmetry_equiv_pos_as_xyz
  1  'x, y, z'
loop_
 _atom_site_type_symbol
 _atom_site_label
 _atom_site_symmetry_multiplicity
 _atom_site_fract_x
 _atom_site_fract_y
 _atom_site_fract_z
 _atom_site_occupancy
  K  K0  1  0.100448  0.310214  0.799960  1
  K  K1  1  0.399552  0.810214  0.299960  1
  K  K2  1  0.600448  0.189786  0.799960  1
  K  K3  1  0.899552  0.689786  0.299960  1
  Li  Li4  1  0.106345  0.958172  0.029403  1
  Li  Li5  1  0.393655  0.458172  0.529403  1
  Li  Li6  1  0.606345  0.541828  0.029403  1
  Li  Li7  1  0.893655  0.041828  0.529403  1
  Ti  Ti8  1  0.135430  0.004356  0.504068  1
  Ti  Ti9  1  0.253518  0.770856  0.757022  1
  Ti  Ti10  1  0.246482  0.270856  0.257022  1
  Ti  Ti11  1  0.364570  0.504356  0.004068  1
  Ti  Ti12  1  0.635430  0.495644  0.504068  1
  Ti  Ti13  1  0.753518  0.729144  0.757022  1
  Ti  Ti14  1  0.746482  0.229144  0.257022  1
  Ti  Ti15  1  0.864570  0.995644  0.004068  1
  P  P16  1  0.000637  0.843847  0.763313  1
  P  P17  1  0.183957  0.507450  0.511504  1
  P  P18  1  0.316043  0.007450  0.011504  1
  P  P19  1  0.499363  0.343847  0.263313  1
  P  P20  1  0.500637  0.656153  0.763313  1
  P  P21  1  0.683957  0.992550  0.511504  1
  P  P22  1  0.816043  0.492550  0.011504  1
  P  P23  1  0.999363  0.156153  0.263313  1
  O  O24  1  0.005086  0.986917  0.648298  1
  O  O25  1  0.005004  0.027338  0.386917  1
  O  O26  1  0.094986  0.301997  0.251407  1
  O  O27  1  0.099801  0.708464  0.774428  1
  O  O28  1  0.115531  0.696119  0.483339  1
  O  O29  1  0.117541  0.315485  0.539384  1
  O  O30  1  0.226459  0.046204  0.383927  1
  O  O31  1  0.223197  0.967098  0.641194  1
  O  O32  1  0.240234  0.048931  0.124269  1
  O  O33  1  0.237563  0.967491  0.901597  1
  O  O34  1  0.262437  0.467491  0.401597  1
  O  O35  1  0.259766  0.548931  0.624269  1
  O  O36  1  0.276803  0.467098  0.141194  1
  O  O37  1  0.273541  0.546204  0.883927  1
  O  O38  1  0.382459  0.815485  0.039384  1
  O  O39  1  0.384469  0.196119  0.983339  1
  O  O40  1  0.400199  0.208464  0.274428  1
  O  O41  1  0.405014  0.801997  0.751407  1
  O  O42  1  0.494996  0.527338  0.886917  1
  O  O43  1  0.494914  0.486917  0.148298  1
  O  O44  1  0.505086  0.513083  0.648298  1
  O  O45  1  0.505004  0.472662  0.386917  1
  O  O46  1  0.594986  0.198003  0.251407  1
  O  O47  1  0.599801  0.791536  0.774428  1
  O  O48  1  0.615531  0.803881  0.483339  1
  O  O49  1  0.617541  0.184515  0.539384  1
  O  O50  1  0.726459  0.453796  0.383927  1
  O  O51  1  0.723197  0.532902  0.641194  1
  O  O52  1  0.740234  0.451069  0.124269  1
  O  O53  1  0.737563  0.532509  0.901597  1
  O  O54  1  0.762437  0.032509  0.401597  1
  O  O55  1  0.759766  0.951069  0.624269  1
  O  O56  1  0.776803  0.032902  0.141194  1
  O  O57  1  0.773541  0.953796  0.883927  1
  O  O58  1  0.882459  0.684515  0.039384  1
  O  O59  1  0.884469  0.303881  0.983339  1
  O  O60  1  0.900199  0.291536  0.274428  1
  O  O61  1  0.905014  0.698003  0.751407  1
  O  O62  1  0.994996  0.972662  0.886917  1
  O  O63  1  0.994914  0.013083  0.148298  1
