# generated using pymatgen
data_Mn(PO3)4
_symmetry_space_group_name_H-M   'P 1'
_cell_length_a   7.13229738
_cell_length_b   8.77397889
_cell_length_c   7.56639733
_cell_angle_alpha   90.00000000
_cell_angle_beta   109.87290644
_cell_angle_gamma   90.00000000
_symmetry_Int_Tables_number   1
_chemical_formula_structural   Mn(PO3)4
_chemical_formula_sum   'Mn2 P8 O24'
_cell_volume   445.29765719
_cell_formula_units_Z   2
loop_
 _symmetry_equiv_pos_site_id
 _symmetry_equiv_pos_as_xyz
  1  'x, y, z'
loop_
 _atom_site_type_symbol
 _atom_site_label
 _atom_site_symmetry_multiplicity
 _atom_site_fract_x
 _atom_site_fract_y
 _atom_site_fract_z
 _atom_site_occupancy
  Mn  Mn0  1  0.000000  0.000000  0.000000  1
  Mn  Mn1  1  0.500000  0.500000  0.500000  1
  P  P2  1  0.192915  0.570873  0.726575  1
  P  P3  1  0.159451  0.209431  0.382452  1
  P  P4  1  0.307085  0.070873  0.773425  1
  P  P5  1  0.340549  0.709431  0.117548  1
  P  P6  1  0.659451  0.290569  0.882452  1
  P  P7  1  0.692915  0.929127  0.226575  1
  P  P8  1  0.840549  0.790569  0.617548  1
  P  P9  1  0.807085  0.429127  0.273425  1
  O  O10  1  0.056393  0.721640  0.675637  1
  O  O11  1  0.081795  0.428708  0.716169  1
  O  O12  1  0.164004  0.094189  0.882084  1
  O  O13  1  0.168905  0.111132  0.559556  1
  O  O14  1  0.331095  0.611132  0.940444  1
  O  O15  1  0.335996  0.594189  0.617916  1
  O  O16  1  0.161671  0.097865  0.229630  1
  O  O17  1  0.418205  0.928708  0.783831  1
  O  O18  1  0.174363  0.823975  0.070604  1
  O  O19  1  0.443607  0.221640  0.824363  1
  O  O20  1  0.325637  0.323974  0.429396  1
  O  O21  1  0.338329  0.597865  0.270370  1
  O  O22  1  0.661671  0.402135  0.729630  1
  O  O23  1  0.674363  0.676025  0.570604  1
  O  O24  1  0.556393  0.778360  0.175637  1
  O  O25  1  0.825637  0.176026  0.929396  1
  O  O26  1  0.581795  0.071292  0.216169  1
  O  O27  1  0.838329  0.902135  0.770370  1
  O  O28  1  0.664004  0.405811  0.382084  1
  O  O29  1  0.668905  0.388868  0.059556  1
  O  O30  1  0.831095  0.888868  0.440444  1
  O  O31  1  0.835996  0.905811  0.117916  1
  O  O32  1  0.918205  0.571292  0.283831  1
  O  O33  1  0.943607  0.278360  0.324363  1
