# generated using pymatgen
data_Li2CrAsCO7
_symmetry_space_group_name_H-M   'P 1'
_cell_length_a   8.62326937
_cell_length_b   6.57695440
_cell_length_c   5.08310716
_cell_angle_alpha   90.00000000
_cell_angle_beta   86.48086956
_cell_angle_gamma   90.00000000
_symmetry_Int_Tables_number   1
_chemical_formula_structural   Li2CrAsCO7
_chemical_formula_sum   'Li4 Cr2 As2 C2 O14'
_cell_volume   287.74404983
_cell_formula_units_Z   2
loop_
 _symmetry_equiv_pos_site_id
 _symmetry_equiv_pos_as_xyz
  1  'x, y, z'
loop_
 _atom_site_type_symbol
 _atom_site_label
 _atom_site_symmetry_multiplicity
 _atom_site_fract_x
 _atom_site_fract_y
 _atom_site_fract_z
 _atom_site_occupancy
  Li  Li0  1  0.214896  0.505243  0.216428  1
  Li  Li1  1  0.214896  0.994757  0.216428  1
  Li  Li2  1  0.785104  0.494757  0.783572  1
  Li  Li3  1  0.785104  0.005243  0.783572  1
  Cr  Cr4  1  0.336098  0.750000  0.795725  1
  Cr  Cr5  1  0.663902  0.250000  0.204275  1
  As  As6  1  0.418801  0.250000  0.714919  1
  As  As7  1  0.581199  0.750000  0.285081  1
  C  C8  1  0.055637  0.750000  0.728605  1
  C  C9  1  0.944363  0.250000  0.271395  1
  O  O10  1  0.088242  0.250000  0.301979  1
  O  O11  1  0.114466  0.750000  0.962351  1
  O  O12  1  0.162543  0.750000  0.531277  1
  O  O13  1  0.310742  0.048312  0.829462  1
  O  O14  1  0.310742  0.451688  0.829462  1
  O  O15  1  0.397359  0.750000  0.170288  1
  O  O16  1  0.445548  0.250000  0.375556  1
  O  O17  1  0.554452  0.750000  0.624444  1
  O  O18  1  0.602641  0.250000  0.829712  1
  O  O19  1  0.689258  0.548312  0.170537  1
  O  O20  1  0.689258  0.951688  0.170537  1
  O  O21  1  0.837457  0.250000  0.468723  1
  O  O22  1  0.885534  0.250000  0.037649  1
  O  O23  1  0.911758  0.750000  0.698021  1
