# generated using pymatgen
data_LiCo2(SO4)3
_symmetry_space_group_name_H-M   'P 1'
_cell_length_a   8.61020389
_cell_length_b   8.61020389
_cell_length_c   8.61020417
_cell_angle_alpha   59.93091469
_cell_angle_beta   59.93091469
_cell_angle_gamma   59.93090914
_symmetry_Int_Tables_number   1
_chemical_formula_structural   LiCo2(SO4)3
_chemical_formula_sum   'Li2 Co4 S6 O24'
_cell_volume   450.65503235
_cell_formula_units_Z   2
loop_
 _symmetry_equiv_pos_site_id
 _symmetry_equiv_pos_as_xyz
  1  'x, y, z'
loop_
 _atom_site_type_symbol
 _atom_site_label
 _atom_site_symmetry_multiplicity
 _atom_site_fract_x
 _atom_site_fract_y
 _atom_site_fract_z
 _atom_site_occupancy
  Li  Li0  1  0.000000  0.000000  0.000000  1
  Li  Li1  1  0.500000  0.500000  0.500000  1
  Co  Co2  1  0.356059  0.356059  0.356059  1
  Co  Co3  1  0.143941  0.143941  0.143941  1
  Co  Co4  1  0.643941  0.643941  0.643941  1
  Co  Co5  1  0.856059  0.856059  0.856059  1
  S  S6  1  0.044730  0.750000  0.455270  1
  S  S7  1  0.544730  0.955270  0.250000  1
  S  S8  1  0.250000  0.544730  0.955270  1
  S  S9  1  0.750000  0.455270  0.044730  1
  S  S10  1  0.455270  0.044730  0.750000  1
  S  S11  1  0.955270  0.250000  0.544730  1
  O  O12  1  0.060286  0.909092  0.269182  1
  O  O13  1  0.090908  0.730818  0.939714  1
  O  O14  1  0.492798  0.892533  0.690377  1
  O  O15  1  0.607467  0.007202  0.809623  1
  O  O16  1  0.230818  0.590908  0.439714  1
  O  O17  1  0.560286  0.769182  0.409092  1
  O  O18  1  0.730818  0.939714  0.090908  1
  O  O19  1  0.992798  0.190377  0.392533  1
  O  O20  1  0.309623  0.507202  0.107467  1
  O  O21  1  0.107467  0.309623  0.507202  1
  O  O22  1  0.190377  0.392533  0.992798  1
  O  O23  1  0.409092  0.560286  0.769182  1
  O  O24  1  0.590908  0.439714  0.230818  1
  O  O25  1  0.892533  0.690377  0.492798  1
  O  O26  1  0.809623  0.607467  0.007202  1
  O  O27  1  0.007202  0.809623  0.607467  1
  O  O28  1  0.690377  0.492798  0.892533  1
  O  O29  1  0.269182  0.060286  0.909092  1
  O  O30  1  0.439714  0.230818  0.590908  1
  O  O31  1  0.769182  0.409092  0.560286  1
  O  O32  1  0.507202  0.107467  0.309623  1
  O  O33  1  0.392533  0.992798  0.190377  1
  O  O34  1  0.909092  0.269182  0.060286  1
  O  O35  1  0.939714  0.090908  0.730818  1
