# generated using pymatgen
data_Li8Mn3V(PO4)6
_symmetry_space_group_name_H-M   'P 1'
_cell_length_a   9.28255841
_cell_length_b   8.47486394
_cell_length_c   8.41823625
_cell_angle_alpha   60.64087703
_cell_angle_beta   63.84519255
_cell_angle_gamma   91.14458477
_symmetry_Int_Tables_number   1
_chemical_formula_structural   Li8Mn3V(PO4)6
_chemical_formula_sum   'Li8 Mn3 V1 P6 O24'
_cell_volume   493.93661883
_cell_formula_units_Z   1
loop_
 _symmetry_equiv_pos_site_id
 _symmetry_equiv_pos_as_xyz
  1  'x, y, z'
loop_
 _atom_site_type_symbol
 _atom_site_label
 _atom_site_symmetry_multiplicity
 _atom_site_fract_x
 _atom_site_fract_y
 _atom_site_fract_z
 _atom_site_occupancy
  Li  Li0  1  0.864808  0.265187  0.803310  1
  Li  Li1  1  0.904071  0.943846  0.363639  1
  Li  Li2  1  0.853458  0.660905  0.072100  1
  Li  Li3  1  0.590527  0.796905  0.670508  1
  Li  Li4  1  0.408217  0.202249  0.330397  1
  Li  Li5  1  0.147703  0.339761  0.927291  1
  Li  Li6  1  0.098192  0.055932  0.633974  1
  Li  Li7  1  0.132494  0.734270  0.196929  1
  Mn  Mn8  1  0.437656  0.148181  0.715646  1
  Mn  Mn9  1  0.561824  0.849987  0.288376  1
  Mn  Mn10  1  0.031378  0.350395  0.311086  1
  V  V11  1  0.966835  0.649056  0.688918  1
  P  P12  1  0.754487  0.948521  0.785461  1
  P  P13  1  0.751967  0.550769  0.505252  1
  P  P14  1  0.762181  0.256468  0.191616  1
  P  P15  1  0.237877  0.745586  0.808592  1
  P  P16  1  0.244155  0.451428  0.493725  1
  P  P17  1  0.247917  0.047673  0.216357  1
  O  O18  1  0.895405  0.148458  0.639910  1
  O  O19  1  0.820189  0.505396  0.659411  1
  O  O20  1  0.817624  0.832214  0.681460  1
  O  O21  1  0.896465  0.565366  0.303280  1
  O  O22  1  0.903553  0.213147  0.254354  1
  O  O23  1  0.726365  0.750745  0.432043  1
  O  O24  1  0.589076  0.966781  0.792746  1
  O  O25  1  0.591109  0.397521  0.618054  1
  O  O26  1  0.822440  0.470885  0.013610  1
  O  O27  1  0.756020  0.132521  0.107934  1
  O  O28  1  0.592589  0.208575  0.382008  1
  O  O29  1  0.744102  0.852605  0.000437  1
  O  O30  1  0.253911  0.145259  0.002947  1
  O  O31  1  0.407528  0.792885  0.617429  1
  O  O32  1  0.246764  0.867526  0.893226  1
  O  O33  1  0.177797  0.529007  0.985613  1
  O  O34  1  0.404441  0.605930  0.378647  1
  O  O35  1  0.416542  0.029349  0.199863  1
  O  O36  1  0.267163  0.251269  0.575433  1
  O  O37  1  0.099272  0.788922  0.744629  1
  O  O38  1  0.099616  0.445429  0.692564  1
  O  O39  1  0.189326  0.160507  0.323199  1
  O  O40  1  0.179783  0.494827  0.335817  1
  O  O41  1  0.107175  0.847758  0.362209  1
