# generated using pymatgen
data_MnPO4
_symmetry_space_group_name_H-M   'P 1'
_cell_length_a   8.45519725
_cell_length_b   8.46417360
_cell_length_c   7.18398990
_cell_angle_alpha   86.44829615
_cell_angle_beta   86.24753546
_cell_angle_gamma   59.49794159
_symmetry_Int_Tables_number   1
_chemical_formula_structural   MnPO4
_chemical_formula_sum   'Mn6 P6 O24'
_cell_volume   441.78453876
_cell_formula_units_Z   6
loop_
 _symmetry_equiv_pos_site_id
 _symmetry_equiv_pos_as_xyz
  1  'x, y, z'
loop_
 _atom_site_type_symbol
 _atom_site_label
 _atom_site_symmetry_multiplicity
 _atom_site_fract_x
 _atom_site_fract_y
 _atom_site_fract_z
 _atom_site_occupancy
  Mn  Mn0  1  0.000862  0.999574  0.247031  1
  Mn  Mn1  1  0.999967  0.999355  0.745561  1
  Mn  Mn2  1  0.343113  0.327985  0.196773  1
  Mn  Mn3  1  0.324588  0.336973  0.796508  1
  Mn  Mn4  1  0.656926  0.672470  0.296706  1
  Mn  Mn5  1  0.675170  0.662559  0.696760  1
  P  P6  1  0.322343  0.038010  0.505494  1
  P  P7  1  0.042777  0.635909  0.491748  1
  P  P8  1  0.363090  0.678145  0.002820  1
  P  P9  1  0.637090  0.322148  0.490948  1
  P  P10  1  0.957176  0.364277  0.001873  1
  P  P11  1  0.677386  0.961643  0.986483  1
  O  O12  1  0.030399  0.157571  0.022111  1
  O  O13  1  0.124011  0.398978  0.987076  1
  O  O14  1  0.287578  0.157594  0.324598  1
  O  O15  1  0.293706  0.144639  0.679305  1
  O  O16  1  0.157261  0.564549  0.667735  1
  O  O17  1  0.158963  0.545564  0.314757  1
  O  O18  1  0.474679  0.133037  0.000041  1
  O  O19  1  0.154710  0.814579  0.997780  1
  O  O20  1  0.399328  0.476773  0.009561  1
  O  O21  1  0.188120  0.965289  0.514911  1
  O  O22  1  0.569969  0.277870  0.318498  1
  O  O23  1  0.546755  0.294269  0.672934  1
  O  O24  1  0.429994  0.724728  0.174346  1
  O  O25  1  0.453205  0.704788  0.819969  1
  O  O26  1  0.812192  0.033579  0.975481  1
  O  O27  1  0.601209  0.523640  0.485261  1
  O  O28  1  0.845380  0.185563  0.496337  1
  O  O29  1  0.525513  0.866861  0.492682  1
  O  O30  1  0.844245  0.435372  0.824857  1
  O  O31  1  0.839070  0.455117  0.177949  1
  O  O32  1  0.714060  0.841036  0.166994  1
  O  O33  1  0.704261  0.855676  0.812504  1
  O  O34  1  0.875880  0.601037  0.506794  1
  O  O35  1  0.968828  0.842840  0.472503  1
