# generated using pymatgen
data_Li2Mn3CuO8
_symmetry_space_group_name_H-M   'P 1'
_cell_length_a   5.92719969
_cell_length_b   5.92719945
_cell_length_c   5.92719998
_cell_angle_alpha   58.97721936
_cell_angle_beta   58.97722433
_cell_angle_gamma   58.97722652
_symmetry_Int_Tables_number   1
_chemical_formula_structural   Li2Mn3CuO8
_chemical_formula_sum   'Li2 Mn3 Cu1 O8'
_cell_volume   143.80703947
_cell_formula_units_Z   1
loop_
 _symmetry_equiv_pos_site_id
 _symmetry_equiv_pos_as_xyz
  1  'x, y, z'
loop_
 _atom_site_type_symbol
 _atom_site_label
 _atom_site_symmetry_multiplicity
 _atom_site_fract_x
 _atom_site_fract_y
 _atom_site_fract_z
 _atom_site_occupancy
  Li  Li0  1  0.119720  0.119720  0.119720  1
  Li  Li1  1  0.497211  0.497211  0.497211  1
  Mn  Mn2  1  0.005564  0.499419  0.499419  1
  Mn  Mn3  1  0.499419  0.005564  0.499419  1
  Mn  Mn4  1  0.499419  0.499419  0.005564  1
  Cu  Cu5  1  0.884084  0.884084  0.884084  1
  O  O6  1  0.262857  0.262857  0.262857  1
  O  O7  1  0.250474  0.250474  0.710384  1
  O  O8  1  0.250474  0.710384  0.250474  1
  O  O9  1  0.710384  0.250474  0.250474  1
  O  O10  1  0.289511  0.745792  0.745792  1
  O  O11  1  0.745792  0.289511  0.745792  1
  O  O12  1  0.745792  0.745792  0.289511  1
  O  O13  1  0.739299  0.739299  0.739299  1
