# generated using pymatgen
data_LiV3OF11
_symmetry_space_group_name_H-M   'P 1'
_cell_length_a   5.24035345
_cell_length_b   5.41180847
_cell_length_c   15.37962901
_cell_angle_alpha   79.93171103
_cell_angle_beta   90.00428645
_cell_angle_gamma   90.06021157
_symmetry_Int_Tables_number   1
_chemical_formula_structural   LiV3OF11
_chemical_formula_sum   'Li2 V6 O2 F22'
_cell_volume   429.44592380
_cell_formula_units_Z   2
loop_
 _symmetry_equiv_pos_site_id
 _symmetry_equiv_pos_as_xyz
  1  'x, y, z'
loop_
 _atom_site_type_symbol
 _atom_site_label
 _atom_site_symmetry_multiplicity
 _atom_site_fract_x
 _atom_site_fract_y
 _atom_site_fract_z
 _atom_site_occupancy
  Li  Li0  1  0.959855  0.033125  0.770085  1
  Li  Li1  1  0.539775  0.533336  0.769959  1
  V  V2  1  0.468423  0.148329  0.659802  1
  V  V3  1  0.999206  0.998679  0.003187  1
  V  V4  1  0.000014  0.333410  0.333200  1
  V  V5  1  0.032372  0.647940  0.659861  1
  V  V6  1  0.500624  0.498646  0.003160  1
  V  V7  1  0.500016  0.833402  0.333191  1
  O  O8  1  0.201929  0.354450  0.690779  1
  O  O9  1  0.297719  0.854419  0.690926  1
  F  F10  1  0.193391  0.019306  0.356664  1
  F  F11  1  0.305995  0.185783  0.024095  1
  F  F12  1  0.694322  0.148253  0.309378  1
  F  F13  1  0.084906  0.042178  0.885054  1
  F  F14  1  0.086807  0.374973  0.220294  1
  F  F15  1  0.421269  0.220768  0.545135  1
  F  F16  1  0.916457  0.295825  0.445842  1
  F  F17  1  0.590275  0.460719  0.115545  1
  F  F18  1  0.606506  0.150974  0.775547  1
  F  F19  1  0.306760  0.519194  0.356680  1
  F  F20  1  0.194636  0.685413  0.023768  1
  F  F21  1  0.702687  0.481283  0.644173  1
  F  F22  1  0.803115  0.312833  0.976101  1
  F  F23  1  0.805590  0.648127  0.309395  1
  F  F24  1  0.415619  0.541605  0.885199  1
  F  F25  1  0.413733  0.875185  0.220257  1
  F  F26  1  0.079564  0.720776  0.545192  1
  F  F27  1  0.583329  0.795617  0.445881  1
  F  F28  1  0.909580  0.960881  0.115818  1
  F  F29  1  0.893380  0.651021  0.775469  1
  F  F30  1  0.796675  0.981440  0.644246  1
  F  F31  1  0.695453  0.812638  0.976437  1
