# generated using pymatgen
data_Li2Fe2CuO6
_symmetry_space_group_name_H-M   'P 1'
_cell_length_a   6.63076783
_cell_length_b   6.67571145
_cell_length_c   8.40386882
_cell_angle_alpha   71.06717255
_cell_angle_beta   109.52175130
_cell_angle_gamma   96.70684372
_symmetry_Int_Tables_number   1
_chemical_formula_structural   Li2Fe2CuO6
_chemical_formula_sum   'Li6 Fe6 Cu3 O18'
_cell_volume   331.63067883
_cell_formula_units_Z   3
loop_
 _symmetry_equiv_pos_site_id
 _symmetry_equiv_pos_as_xyz
  1  'x, y, z'
loop_
 _atom_site_type_symbol
 _atom_site_label
 _atom_site_symmetry_multiplicity
 _atom_site_fract_x
 _atom_site_fract_y
 _atom_site_fract_z
 _atom_site_occupancy
  Li  Li0  1  0.006542  0.661561  0.831721  1
  Li  Li1  1  0.009143  0.337896  0.168532  1
  Li  Li2  1  0.336017  0.999675  0.832312  1
  Li  Li3  1  0.327666  0.332043  0.499431  1
  Li  Li4  1  0.663859  0.670077  0.501204  1
  Li  Li5  1  0.658117  0.999052  0.166832  1
  Fe  Fe6  1  0.999350  0.334023  0.666411  1
  Fe  Fe7  1  0.001967  0.667084  0.335947  1
  Fe  Fe8  1  0.663036  0.660833  0.995347  1
  Fe  Fe9  1  0.670902  0.000178  0.667086  1
  Fe  Fe10  1  0.999425  0.997842  0.001360  1
  Fe  Fe11  1  0.661581  0.334253  0.331777  1
  Cu  Cu12  1  0.334239  0.666845  0.665444  1
  Cu  Cu13  1  0.329003  0.998111  0.333200  1
  Cu  Cu14  1  0.335229  0.336794  0.998280  1
  O  O15  1  0.018823  0.328149  0.906234  1
  O  O16  1  0.007488  0.639040  0.579074  1
  O  O17  1  0.012945  0.980125  0.246105  1
  O  O18  1  0.341079  0.650904  0.903912  1
  O  O19  1  0.352394  0.990691  0.579285  1
  O  O20  1  0.673950  0.979165  0.916869  1
  O  O21  1  0.299642  0.340877  0.745302  1
  O  O22  1  0.306659  0.676985  0.422382  1
  O  O23  1  0.661389  0.683928  0.746958  1
  O  O24  1  0.337253  0.312769  0.250424  1
  O  O25  1  0.693470  0.327342  0.579962  1
  O  O26  1  0.700602  0.661627  0.258216  1
  O  O27  1  0.323241  0.025897  0.085277  1
  O  O28  1  0.640049  0.008734  0.412383  1
  O  O29  1  0.657589  0.344504  0.094234  1
  O  O30  1  0.994409  0.020498  0.756961  1
  O  O31  1  0.997003  0.361455  0.425043  1
  O  O32  1  0.985938  0.671043  0.096500  1
