# generated using pymatgen
data_CoSn(PO4)2
_symmetry_space_group_name_H-M   'P 1'
_cell_length_a   10.07075800
_cell_length_b   6.05818653
_cell_length_c   4.96887614
_cell_angle_alpha   90.00000000
_cell_angle_beta   90.75974171
_cell_angle_gamma   90.00000000
_symmetry_Int_Tables_number   1
_chemical_formula_structural   CoSn(PO4)2
_chemical_formula_sum   'Co2 Sn2 P4 O16'
_cell_volume   303.12711804
_cell_formula_units_Z   2
loop_
 _symmetry_equiv_pos_site_id
 _symmetry_equiv_pos_as_xyz
  1  'x, y, z'
loop_
 _atom_site_type_symbol
 _atom_site_label
 _atom_site_symmetry_multiplicity
 _atom_site_fract_x
 _atom_site_fract_y
 _atom_site_fract_z
 _atom_site_occupancy
  Co  Co0  1  0.274957  0.250000  0.956584  1
  Co  Co1  1  0.725043  0.750000  0.043416  1
  Sn  Sn2  1  0.223220  0.750000  0.464594  1
  Sn  Sn3  1  0.776780  0.250000  0.535406  1
  P  P4  1  0.097589  0.250000  0.416408  1
  P  P5  1  0.405162  0.750000  0.904402  1
  P  P6  1  0.594838  0.250000  0.095598  1
  P  P7  1  0.902411  0.750000  0.583592  1
  O  O8  1  0.050696  0.750000  0.674771  1
  O  O9  1  0.112366  0.250000  0.719604  1
  O  O10  1  0.168506  0.048563  0.274154  1
  O  O11  1  0.168506  0.451437  0.274154  1
  O  O12  1  0.329521  0.553092  0.756112  1
  O  O13  1  0.329521  0.946908  0.756112  1
  O  O14  1  0.379699  0.750000  0.210342  1
  O  O15  1  0.447506  0.250000  0.150398  1
  O  O16  1  0.552494  0.750000  0.849602  1
  O  O17  1  0.620301  0.250000  0.789658  1
  O  O18  1  0.670479  0.053092  0.243888  1
  O  O19  1  0.670479  0.446908  0.243888  1
  O  O20  1  0.831494  0.548563  0.725846  1
  O  O21  1  0.831494  0.951437  0.725846  1
  O  O22  1  0.887634  0.750000  0.280396  1
  O  O23  1  0.949304  0.250000  0.325229  1
