# generated using pymatgen
data_V2OF5
_symmetry_space_group_name_H-M   'P 1'
_cell_length_a   5.26609340
_cell_length_b   5.43376347
_cell_length_c   17.45991779
_cell_angle_alpha   91.44951651
_cell_angle_beta   98.89535426
_cell_angle_gamma   61.09880326
_symmetry_Int_Tables_number   1
_chemical_formula_structural   V2OF5
_chemical_formula_sum   'V8 O4 F20'
_cell_volume   431.41900320
_cell_formula_units_Z   4
loop_
 _symmetry_equiv_pos_site_id
 _symmetry_equiv_pos_as_xyz
  1  'x, y, z'
loop_
 _atom_site_type_symbol
 _atom_site_label
 _atom_site_symmetry_multiplicity
 _atom_site_fract_x
 _atom_site_fract_y
 _atom_site_fract_z
 _atom_site_occupancy
  V  V0  1  0.720764  0.649912  0.119884  1
  V  V1  1  0.755144  0.107649  0.623888  1
  V  V2  1  0.487653  0.286030  0.253546  1
  V  V3  1  0.503146  0.726727  0.756678  1
  V  V4  1  0.245572  0.877331  0.373525  1
  V  V5  1  0.264746  0.373883  0.873710  1
  V  V6  1  0.015231  0.001060  0.002298  1
  V  V7  1  0.996008  0.518730  0.504247  1
  O  O8  1  0.952323  0.790173  0.559890  1
  O  O9  1  0.429868  0.795067  0.047766  1
  O  O10  1  0.441396  0.560077  0.307022  1
  O  O11  1  0.430050  0.579486  0.828297  1
  F  F12  1  0.921790  0.845878  0.090034  1
  F  F13  1  0.972687  0.329548  0.061230  1
  F  F14  1  0.538921  0.943243  0.192371  1
  F  F15  1  0.916687  0.054198  0.287248  1
  F  F16  1  0.936731  0.312835  0.583887  1
  F  F17  1  0.931614  0.527066  0.785845  1
  F  F18  1  0.578871  0.411228  0.162218  1
  F  F19  1  0.576234  0.908078  0.669146  1
  F  F20  1  0.571260  0.698017  0.460156  1
  F  F21  1  0.530955  0.440769  0.683391  1
  F  F22  1  0.425752  0.084005  0.336150  1
  F  F23  1  0.423975  0.284886  0.536369  1
  F  F24  1  0.588831  0.214926  0.962723  1
  F  F25  1  0.063772  0.671178  0.411983  1
  F  F26  1  0.067553  0.458418  0.206645  1
  F  F27  1  0.083484  0.958803  0.711105  1
  F  F28  1  0.494384  0.044723  0.815161  1
  F  F29  1  0.040718  0.688892  0.937924  1
  F  F30  1  0.029822  0.201849  0.437964  1
  F  F31  1  0.092192  0.160805  0.913340  1
