# generated using pymatgen
data_Li2Mn3(BO3)3
_symmetry_space_group_name_H-M   'P 1'
_cell_length_a   11.78264526
_cell_length_b   5.29341945
_cell_length_c   6.20144561
_cell_angle_alpha   87.45505727
_cell_angle_beta   95.52276042
_cell_angle_gamma   100.99509546
_symmetry_Int_Tables_number   1
_chemical_formula_structural   Li2Mn3(BO3)3
_chemical_formula_sum   'Li4 Mn6 B6 O18'
_cell_volume   377.79030536
_cell_formula_units_Z   2
loop_
 _symmetry_equiv_pos_site_id
 _symmetry_equiv_pos_as_xyz
  1  'x, y, z'
loop_
 _atom_site_type_symbol
 _atom_site_label
 _atom_site_symmetry_multiplicity
 _atom_site_fract_x
 _atom_site_fract_y
 _atom_site_fract_z
 _atom_site_occupancy
  Li  Li0  1  0.876257  0.512660  0.808108  1
  Li  Li1  1  0.467563  0.145057  0.872879  1
  Li  Li2  1  0.790410  0.820673  0.525225  1
  Li  Li3  1  0.199104  0.188277  0.460454  1
  Mn  Mn4  1  0.780959  0.975582  0.974423  1
  Mn  Mn5  1  0.885708  0.357751  0.358910  1
  Mn  Mn6  1  0.544730  0.682578  0.701066  1
  Mn  Mn7  1  0.454749  0.310306  0.298360  1
  Mn  Mn8  1  0.121937  0.650755  0.632267  1
  Mn  Mn9  1  0.211917  0.023029  0.034974  1
  B  B10  1  0.665176  0.256810  0.594044  1
  B  B11  1  0.996155  0.921831  0.281954  1
  B  B12  1  0.329196  0.585353  0.908004  1
  B  B13  1  0.670511  0.411503  0.051379  1
  B  B14  1  0.001491  0.076524  0.739289  1
  B  B15  1  0.337471  0.747981  0.425329  1
  O  O16  1  0.989710  0.330436  0.695348  1
  O  O17  1  0.910449  0.888575  0.790963  1
  O  O18  1  0.676957  0.002897  0.637986  1
  O  O19  1  0.756218  0.444759  0.542370  1
  O  O20  1  0.556234  0.320362  0.620228  1
  O  O21  1  0.882049  0.966121  0.283917  1
  O  O22  1  0.348145  0.342090  0.974873  1
  O  O23  1  0.784618  0.367212  0.049416  1
  O  O24  1  0.417965  0.779076  0.848857  1
  O  O25  1  0.584219  0.231258  0.123896  1
  O  O26  1  0.217927  0.648645  0.909515  1
  O  O27  1  0.650585  0.650932  0.962818  1
  O  O28  1  0.110433  0.012971  0.713106  1
  O  O29  1  0.448740  0.684689  0.423818  1
  O  O30  1  0.248701  0.554257  0.484476  1
  O  O31  1  0.318521  0.991243  0.358460  1
  O  O32  1  0.082448  0.102076  0.209437  1
  O  O33  1  0.016081  0.682401  0.370516  1
