# generated using pymatgen
data_Li4Ti(TeO4)3
_symmetry_space_group_name_H-M   'P 1'
_cell_length_a   5.21258174
_cell_length_b   5.06557539
_cell_length_c   8.81761140
_cell_angle_alpha   90.00000000
_cell_angle_beta   90.00000000
_cell_angle_gamma   93.72506765
_symmetry_Int_Tables_number   1
_chemical_formula_structural   Li4Ti(TeO4)3
_chemical_formula_sum   'Li4 Ti1 Te3 O12'
_cell_volume   232.33471562
_cell_formula_units_Z   1
loop_
 _symmetry_equiv_pos_site_id
 _symmetry_equiv_pos_as_xyz
  1  'x, y, z'
loop_
 _atom_site_type_symbol
 _atom_site_label
 _atom_site_symmetry_multiplicity
 _atom_site_fract_x
 _atom_site_fract_y
 _atom_site_fract_z
 _atom_site_occupancy
  Li  Li0  1  0.000000  0.000000  0.695933  1
  Li  Li1  1  0.000000  0.500000  0.868123  1
  Li  Li2  1  0.500000  0.000000  0.303520  1
  Li  Li3  1  0.500000  0.500000  0.171032  1
  Ti  Ti4  1  0.000000  0.000000  0.104815  1
  Te  Te5  1  0.000000  0.500000  0.401459  1
  Te  Te6  1  0.500000  0.000000  0.920819  1
  Te  Te7  1  0.500000  0.500000  0.603742  1
  O  O8  1  0.136747  0.265625  0.250875  1
  O  O9  1  0.147365  0.283706  0.560884  1
  O  O10  1  0.199967  0.208967  0.941337  1
  O  O11  1  0.332627  0.702510  0.421424  1
  O  O12  1  0.314925  0.803565  0.088310  1
  O  O13  1  0.311527  0.783123  0.772987  1
  O  O14  1  0.688473  0.216877  0.772987  1
  O  O15  1  0.685075  0.196435  0.088310  1
  O  O16  1  0.667373  0.297490  0.421424  1
  O  O17  1  0.800033  0.791033  0.941337  1
  O  O18  1  0.852635  0.716294  0.560884  1
  O  O19  1  0.863253  0.734375  0.250875  1
