# generated using pymatgen
data_LiMn2(BO3)2
_symmetry_space_group_name_H-M   'P 1'
_cell_length_a   9.08453820
_cell_length_b   9.18735413
_cell_length_c   10.47190773
_cell_angle_alpha   89.99999966
_cell_angle_beta   90.37796829
_cell_angle_gamma   59.62490447
_symmetry_Int_Tables_number   1
_chemical_formula_structural   LiMn2(BO3)2
_chemical_formula_sum   'Li6 Mn12 B12 O36'
_cell_volume   754.02041855
_cell_formula_units_Z   6
loop_
 _symmetry_equiv_pos_site_id
 _symmetry_equiv_pos_as_xyz
  1  'x, y, z'
loop_
 _atom_site_type_symbol
 _atom_site_label
 _atom_site_symmetry_multiplicity
 _atom_site_fract_x
 _atom_site_fract_y
 _atom_site_fract_z
 _atom_site_occupancy
  Li  Li0  1  0.414166  0.283532  0.676290  1
  Li  Li1  1  0.414166  0.302302  0.176290  1
  Li  Li2  1  0.909839  0.054154  0.915979  1
  Li  Li3  1  0.909839  0.036008  0.415979  1
  Li  Li4  1  0.769991  0.594832  0.668981  1
  Li  Li5  1  0.769991  0.635178  0.168981  1
  Mn  Mn6  1  0.081986  0.252943  0.125171  1
  Mn  Mn7  1  0.254558  0.075166  0.876625  1
  Mn  Mn8  1  0.081986  0.665071  0.625171  1
  Mn  Mn9  1  0.546035  0.051362  0.378939  1
  Mn  Mn10  1  0.254558  0.670276  0.376625  1
  Mn  Mn11  1  0.546035  0.402603  0.878939  1
  Mn  Mn12  1  0.426927  0.642930  0.120554  1
  Mn  Mn13  1  0.426927  0.930143  0.620554  1
  Mn  Mn14  1  0.791619  0.252987  0.634126  1
  Mn  Mn15  1  0.896277  0.401815  0.393003  1
  Mn  Mn16  1  0.896277  0.701906  0.893003  1
  Mn  Mn17  1  0.791619  0.955394  0.134126  1
  B  B18  1  0.211314  0.039004  0.365960  1
  B  B19  1  0.108050  0.304891  0.643407  1
  B  B20  1  0.108050  0.587058  0.143407  1
  B  B21  1  0.211314  0.749682  0.865960  1
  B  B22  1  0.575782  0.046531  0.872846  1
  B  B23  1  0.453650  0.588076  0.630224  1
  B  B24  1  0.575782  0.377686  0.372846  1
  B  B25  1  0.764293  0.297855  0.108485  1
  B  B26  1  0.453650  0.958274  0.130224  1
  B  B27  1  0.886733  0.371458  0.875472  1
  B  B28  1  0.764293  0.937853  0.608485  1
  B  B29  1  0.886733  0.741810  0.375472  1
  O  O30  1  0.046905  0.278648  0.937356  1
  O  O31  1  0.200367  0.137905  0.695855  1
  O  O32  1  0.116433  0.199515  0.306899  1
  O  O33  1  0.296595  0.055164  0.066362  1
  O  O34  1  0.177618  0.403754  0.639730  1
  O  O35  1  0.046905  0.674447  0.437356  1
  O  O36  1  0.177618  0.418629  0.139730  1
  O  O37  1  0.116433  0.684053  0.806899  1
  O  O38  1  0.200367  0.661728  0.195855  1
  O  O39  1  0.520741  0.050650  0.189794  1
  O  O40  1  0.149432  0.916944  0.875655  1
  O  O41  1  0.489871  0.216723  0.853788  1
  O  O42  1  0.590667  0.029056  0.568535  1
  O  O43  1  0.149432  0.933624  0.375655  1
  O  O44  1  0.296595  0.648242  0.566362  1
  O  O45  1  0.489871  0.293406  0.353788  1
  O  O46  1  0.367897  0.633514  0.921989  1
  O  O47  1  0.520741  0.428609  0.689794  1
  O  O48  1  0.495866  0.550205  0.336789  1
  O  O49  1  0.590667  0.380277  0.068535  1
  O  O50  1  0.367897  0.998588  0.421989  1
  O  O51  1  0.867002  0.005249  0.605472  1
  O  O52  1  0.535076  0.675460  0.631801  1
  O  O53  1  0.739022  0.299958  0.425575  1
  O  O54  1  0.804487  0.281850  0.842306  1
  O  O55  1  0.867002  0.127749  0.105472  1
  O  O56  1  0.535076  0.789465  0.131801  1
  O  O57  1  0.495866  0.953930  0.836789  1
  O  O58  1  0.833178  0.397566  0.147963  1
  O  O59  1  0.820820  0.535561  0.848237  1
  O  O60  1  0.944528  0.358548  0.594265  1
  O  O61  1  0.820820  0.643618  0.348237  1
  O  O62  1  0.739022  0.961018  0.925575  1
  O  O63  1  0.833178  0.769256  0.647963  1
  O  O64  1  0.804487  0.913664  0.342306  1
  O  O65  1  0.944528  0.696924  0.094265  1
