# generated using pymatgen
data_LiFePO4
_symmetry_space_group_name_H-M   'P 1'
_cell_length_a   9.39610570
_cell_length_b   6.31792510
_cell_length_c   4.97094816
_cell_angle_alpha   90.03491841
_cell_angle_beta   89.99179089
_cell_angle_gamma   90.00199020
_symmetry_Int_Tables_number   1
_chemical_formula_structural   LiFePO4
_chemical_formula_sum   'Li4 Fe4 P4 O16'
_cell_volume   295.09477218
_cell_formula_units_Z   4
loop_
 _symmetry_equiv_pos_site_id
 _symmetry_equiv_pos_as_xyz
  1  'x, y, z'
loop_
 _atom_site_type_symbol
 _atom_site_label
 _atom_site_symmetry_multiplicity
 _atom_site_fract_x
 _atom_site_fract_y
 _atom_site_fract_z
 _atom_site_occupancy
  Li  Li0  1  0.168833  0.749940  0.475736  1
  Li  Li1  1  0.331176  0.250091  0.975747  1
  Li  Li2  1  0.668822  0.749909  0.024252  1
  Li  Li3  1  0.831167  0.250060  0.524259  1
  Fe  Fe4  1  0.000006  0.999970  0.000020  1
  Fe  Fe5  1  0.000003  0.499996  0.999993  1
  Fe  Fe6  1  0.500001  0.000015  0.500000  1
  Fe  Fe7  1  0.499997  0.500011  0.499994  1
  P  P8  1  0.177787  0.250055  0.471280  1
  P  P9  1  0.322227  0.750033  0.971304  1
  P  P10  1  0.677774  0.249967  0.028698  1
  P  P11  1  0.822212  0.749947  0.528721  1
  O  O12  1  0.117556  0.047079  0.339784  1
  O  O13  1  0.117678  0.452677  0.339899  1
  O  O14  1  0.139758  0.250113  0.777385  1
  O  O15  1  0.156762  0.749847  0.915280  1
  O  O16  1  0.343232  0.249809  0.415242  1
  O  O17  1  0.360199  0.750212  0.277371  1
  O  O18  1  0.382447  0.547375  0.839807  1
  O  O19  1  0.382318  0.952926  0.839925  1
  O  O20  1  0.617680  0.047075  0.160074  1
  O  O21  1  0.617549  0.452627  0.160190  1
  O  O22  1  0.639800  0.249789  0.722627  1
  O  O23  1  0.656767  0.750195  0.584755  1
  O  O24  1  0.843239  0.250150  0.084725  1
  O  O25  1  0.860241  0.749886  0.222611  1
  O  O26  1  0.882322  0.547323  0.660098  1
  O  O27  1  0.882448  0.952921  0.660221  1
