# generated using pymatgen
data_Li4FeCo3(PO4)4
_symmetry_space_group_name_H-M   'P 1'
_cell_length_a   4.76369629
_cell_length_b   10.32723881
_cell_length_c   6.00885897
_cell_angle_alpha   90.00000000
_cell_angle_beta   90.00000000
_cell_angle_gamma   89.97834386
_symmetry_Int_Tables_number   1
_chemical_formula_structural   Li4FeCo3(PO4)4
_chemical_formula_sum   'Li4 Fe1 Co3 P4 O16'
_cell_volume   295.61077862
_cell_formula_units_Z   1
loop_
 _symmetry_equiv_pos_site_id
 _symmetry_equiv_pos_as_xyz
  1  'x, y, z'
loop_
 _atom_site_type_symbol
 _atom_site_label
 _atom_site_symmetry_multiplicity
 _atom_site_fract_x
 _atom_site_fract_y
 _atom_site_fract_z
 _atom_site_occupancy
  Li  Li0  1  0.000971  0.998930  0.999777  1
  Li  Li1  1  0.000971  0.998930  0.500223  1
  Li  Li2  1  0.499684  0.500885  0.500621  1
  Li  Li3  1  0.499684  0.500885  0.999379  1
  Fe  Fe4  1  0.972865  0.280245  0.250000  1
  Co  Co5  1  0.021738  0.719445  0.750000  1
  Co  Co6  1  0.478385  0.218783  0.750000  1
  Co  Co7  1  0.521919  0.780363  0.250000  1
  P  P8  1  0.084008  0.595416  0.250000  1
  P  P9  1  0.415335  0.094732  0.250000  1
  P  P10  1  0.583903  0.904697  0.750000  1
  P  P11  1  0.916046  0.405785  0.750000  1
  O  O12  1  0.206838  0.456175  0.250000  1
  O  O13  1  0.221427  0.666479  0.044945  1
  O  O14  1  0.221427  0.666479  0.455055  1
  O  O15  1  0.239082  0.401876  0.750000  1
  O  O16  1  0.261866  0.901688  0.750000  1
  O  O17  1  0.279420  0.165358  0.043974  1
  O  O18  1  0.279420  0.165358  0.456026  1
  O  O19  1  0.294768  0.954699  0.250000  1
  O  O20  1  0.705262  0.045022  0.750000  1
  O  O21  1  0.721974  0.833662  0.545456  1
  O  O22  1  0.721974  0.833662  0.954544  1
  O  O23  1  0.737104  0.097516  0.250000  1
  O  O24  1  0.761460  0.598362  0.250000  1
  O  O25  1  0.778266  0.334403  0.546843  1
  O  O26  1  0.778266  0.334403  0.953157  1
  O  O27  1  0.795942  0.545762  0.750000  1
