# generated using pymatgen
data_Li9Nb7V12O48
_symmetry_space_group_name_H-M   'P 1'
_cell_length_a   5.20824994
_cell_length_b   10.54542165
_cell_length_c   17.64956901
_cell_angle_alpha   90.49048053
_cell_angle_beta   89.61264573
_cell_angle_gamma   89.83770372
_symmetry_Int_Tables_number   1
_chemical_formula_structural   Li9Nb7V12O48
_chemical_formula_sum   'Li9 Nb7 V12 O48'
_cell_volume   969.30894135
_cell_formula_units_Z   1
loop_
 _symmetry_equiv_pos_site_id
 _symmetry_equiv_pos_as_xyz
  1  'x, y, z'
loop_
 _atom_site_type_symbol
 _atom_site_label
 _atom_site_symmetry_multiplicity
 _atom_site_fract_x
 _atom_site_fract_y
 _atom_site_fract_z
 _atom_site_occupancy
  Li  Li0  1  0.091724  0.245898  0.250198  1
  Li  Li1  1  0.251865  0.424377  0.966247  1
  Li  Li2  1  0.255783  0.583121  0.472460  1
  Li  Li3  1  0.255970  0.916881  0.471402  1
  Li  Li4  1  0.246243  0.262369  0.800470  1
  Li  Li5  1  0.749851  0.753516  0.191256  1
  Li  Li6  1  0.744371  0.919330  0.030023  1
  Li  Li7  1  0.756415  0.254161  0.705696  1
  Li  Li8  1  0.909231  0.748020  0.747203  1
  Nb  Nb9  1  0.235354  0.746833  0.299755  1
  Nb  Nb10  1  0.229248  0.067443  0.968523  1
  Nb  Nb11  1  0.412083  0.747760  0.753667  1
  Nb  Nb12  1  0.584190  0.250578  0.248660  1
  Nb  Nb13  1  0.764878  0.069965  0.524255  1
  Nb  Nb14  1  0.763272  0.429438  0.522947  1
  Nb  Nb15  1  0.773798  0.578162  0.029100  1
  V  V16  1  0.232722  0.748439  0.943473  1
  V  V17  1  0.229564  0.031017  0.659030  1
  V  V18  1  0.225418  0.468335  0.655806  1
  V  V19  1  0.282905  0.530384  0.159697  1
  V  V20  1  0.282342  0.969445  0.156900  1
  V  V21  1  0.301324  0.248258  0.442213  1
  V  V22  1  0.712081  0.750214  0.557295  1
  V  V23  1  0.718268  0.468426  0.842370  1
  V  V24  1  0.715275  0.034872  0.835354  1
  V  V25  1  0.784601  0.530449  0.339461  1
  V  V26  1  0.777624  0.969257  0.338865  1
  V  V27  1  0.768834  0.250281  0.056062  1
  O  O28  1  0.054828  0.235812  0.998447  1
  O  O29  1  0.063603  0.624998  0.371389  1
  O  O30  1  0.068412  0.875157  0.367410  1
  O  O31  1  0.072721  0.640537  0.222338  1
  O  O32  1  0.090828  0.875855  0.218009  1
  O  O33  1  0.062874  0.117719  0.470067  1
  O  O34  1  0.061618  0.380831  0.468555  1
  O  O35  1  0.101851  0.004033  0.075839  1
  O  O36  1  0.065649  0.500996  0.073994  1
  O  O37  1  0.174355  0.751708  0.839847  1
  O  O38  1  0.175124  0.617315  0.702957  1
  O  O39  1  0.176038  0.882042  0.702885  1
  O  O40  1  0.364826  0.114407  0.203869  1
  O  O41  1  0.367439  0.374355  0.205167  1
  O  O42  1  0.373538  0.247230  0.338634  1
  O  O43  1  0.421651  0.492757  0.575149  1
  O  O44  1  0.425670  0.008957  0.577752  1
  O  O45  1  0.401306  0.894745  0.966159  1
  O  O46  1  0.427901  0.619808  0.968337  1
  O  O47  1  0.408496  0.120404  0.716690  1
  O  O48  1  0.398727  0.372589  0.708632  1
  O  O49  1  0.425043  0.115155  0.881883  1
  O  O50  1  0.452767  0.387622  0.868441  1
  O  O51  1  0.453612  0.750094  0.500330  1
  O  O52  1  0.594597  0.250266  0.514218  1
  O  O53  1  0.581341  0.615038  0.119899  1
  O  O54  1  0.548822  0.889612  0.130652  1
  O  O55  1  0.541298  0.628131  0.292819  1
  O  O56  1  0.551459  0.864499  0.295240  1
  O  O57  1  0.568409  0.126176  0.034110  1
  O  O58  1  0.599089  0.386435  0.034854  1
  O  O59  1  0.598514  0.014016  0.429100  1
  O  O60  1  0.598702  0.485479  0.427248  1
  O  O61  1  0.631828  0.749854  0.654320  1
  O  O62  1  0.638452  0.616802  0.791479  1
  O  O63  1  0.641784  0.875908  0.793302  1
  O  O64  1  0.836718  0.116970  0.293643  1
  O  O65  1  0.836639  0.380651  0.292794  1
  O  O66  1  0.830989  0.247367  0.154721  1
  O  O67  1  0.898735  0.506612  0.925928  1
  O  O68  1  0.927103  0.002869  0.923630  1
  O  O69  1  0.896022  0.611497  0.536248  1
  O  O70  1  0.897084  0.887650  0.536223  1
  O  O71  1  0.918780  0.124699  0.786637  1
  O  O72  1  0.907677  0.377680  0.786596  1
  O  O73  1  0.940110  0.107804  0.624907  1
  O  O74  1  0.934216  0.392097  0.623029  1
  O  O75  1  0.937521  0.739533  0.007237  1
