# generated using pymatgen
data_LiV2P4(HO8)2
_symmetry_space_group_name_H-M   'P 1'
_cell_length_a   9.28741063
_cell_length_b   9.27979431
_cell_length_c   7.37450480
_cell_angle_alpha   97.51863045
_cell_angle_beta   97.56868486
_cell_angle_gamma   116.54007930
_symmetry_Int_Tables_number   1
_chemical_formula_structural   LiV2P4(HO8)2
_chemical_formula_sum   'Li2 V4 P8 H4 O32'
_cell_volume   550.59781299
_cell_formula_units_Z   2
loop_
 _symmetry_equiv_pos_site_id
 _symmetry_equiv_pos_as_xyz
  1  'x, y, z'
loop_
 _atom_site_type_symbol
 _atom_site_label
 _atom_site_symmetry_multiplicity
 _atom_site_fract_x
 _atom_site_fract_y
 _atom_site_fract_z
 _atom_site_occupancy
  Li  Li0  1  0.263071  0.134161  0.851131  1
  Li  Li1  1  0.367809  0.737168  0.652118  1
  V  V2  1  -0.000046  0.500462  0.002841  1
  V  V3  1  0.507617  0.497850  0.490670  1
  V  V4  1  0.992420  0.997232  0.491450  1
  V  V5  1  0.505907  0.002598  0.013148  1
  P  P6  1  0.260407  0.110029  0.234629  1
  P  P7  1  0.235001  0.391524  0.763331  1
  P  P8  1  0.611531  0.263367  0.733018  1
  P  P9  1  0.110727  0.764929  0.738569  1
  P  P10  1  0.388256  0.736952  0.268144  1
  P  P11  1  0.889657  0.244434  0.273397  1
  P  P12  1  0.760049  0.612729  0.222228  1
  P  P13  1  0.736391  0.886693  0.765082  1
  H  H14  1  0.516538  0.025903  0.512569  1
  H  H15  1  0.006420  0.513552  0.507083  1
  H  H16  1  0.481134  0.489045  0.988726  1
  H  H17  1  0.974616  0.984688  0.987781  1
  O  O18  1  0.151894  0.209180  0.658329  1
  O  O19  1  0.103638  0.436400  0.822840  1
  O  O20  1  0.149040  0.094995  0.055572  1
  O  O21  1  0.994134  0.335639  0.132742  1
  O  O22  1  0.494639  0.169459  0.856682  1
  O  O23  1  0.350390  0.398643  0.939758  1
  O  O24  1  0.393835  0.065447  0.186736  1
  O  O25  1  0.354316  0.295581  0.350565  1
  O  O26  1  0.599570  0.151105  0.552953  1
  O  O27  1  0.100227  0.649640  0.562483  1
  O  O28  1  0.828837  0.997391  0.636806  1
  O  O29  1  0.331576  0.507139  0.639766  1
  O  O30  1  0.568262  0.397383  0.674356  1
  O  O31  1  0.072856  0.902052  0.690144  1
  O  O32  1  0.294447  0.848076  0.845949  1
  O  O33  1  0.791341  0.351397  0.847854  1
  O  O34  1  0.205677  0.646405  0.152045  1
  O  O35  1  0.707852  0.151849  0.154551  1
  O  O36  1  0.935788  0.112037  0.318078  1
  O  O37  1  0.431840  0.599955  0.320971  1
  O  O38  1  0.668091  0.503031  0.359818  1
  O  O39  1  0.170267  0.005803  0.369546  1
  O  O40  1  0.405316  0.847893  0.447706  1
  O  O41  1  0.907745  0.362682  0.444980  1
  O  O42  1  0.648830  0.703635  0.648619  1
  O  O43  1  0.596641  0.921060  0.812878  1
  O  O44  1  0.641489  0.590942  0.049777  1
  O  O45  1  0.497386  0.825850  0.137005  1
  O  O46  1  0.000908  0.667878  0.867929  1
  O  O47  1  0.848340  0.902481  0.947683  1
  O  O48  1  0.895408  0.566903  0.176731  1
  O  O49  1  0.849182  0.791493  0.342234  1
