# generated using pymatgen
data_Li4Mn5Sn(PO4)6
_symmetry_space_group_name_H-M   'P 1'
_cell_length_a   8.65459682
_cell_length_b   9.08214104
_cell_length_c   9.06975956
_cell_angle_alpha   59.97666936
_cell_angle_beta   58.83108079
_cell_angle_gamma   58.80602505
_symmetry_Int_Tables_number   1
_chemical_formula_structural   Li4Mn5Sn(PO4)6
_chemical_formula_sum   'Li4 Mn5 Sn1 P6 O24'
_cell_volume   494.82456636
_cell_formula_units_Z   1
loop_
 _symmetry_equiv_pos_site_id
 _symmetry_equiv_pos_as_xyz
  1  'x, y, z'
loop_
 _atom_site_type_symbol
 _atom_site_label
 _atom_site_symmetry_multiplicity
 _atom_site_fract_x
 _atom_site_fract_y
 _atom_site_fract_z
 _atom_site_occupancy
  Li  Li0  1  0.250308  0.849798  0.648139  1
  Li  Li1  1  0.787453  0.149927  0.355829  1
  Li  Li2  1  0.785401  0.710820  0.146329  1
  Li  Li3  1  0.788678  0.359164  0.703879  1
  Mn  Mn4  1  0.023220  0.995530  0.000088  1
  Mn  Mn5  1  0.047066  0.646511  0.652321  1
  Mn  Mn6  1  0.491376  0.495639  0.500479  1
  Mn  Mn7  1  0.457666  0.846556  0.848855  1
  Mn  Mn8  1  0.966677  0.346928  0.340948  1
  Sn  Sn9  1  0.547230  0.154777  0.148705  1
  P  P10  1  0.241449  0.255357  0.559385  1
  P  P11  1  0.243751  0.944067  0.253886  1
  P  P12  1  0.242428  0.561289  0.942105  1
  P  P13  1  0.744637  0.445064  0.056344  1
  P  P14  1  0.760976  0.052845  0.751037  1
  P  P15  1  0.728746  0.756630  0.448311  1
  O  O16  1  0.055176  0.094612  0.319198  1
  O  O17  1  0.054104  0.532064  0.089856  1
  O  O18  1  0.052865  0.331282  0.525344  1
  O  O19  1  0.226935  0.089418  0.735422  1
  O  O20  1  0.420986  0.193271  0.394456  1
  O  O21  1  0.276403  0.396456  0.573592  1
  O  O22  1  0.232806  0.923544  0.100866  1
  O  O23  1  0.277465  0.763850  0.410623  1
  O  O24  1  0.562790  0.589307  0.018811  1
  O  O25  1  0.278423  0.575960  0.749874  1
  O  O26  1  0.763987  0.242420  0.090924  1
  O  O27  1  0.594041  0.996772  0.815930  1
  O  O28  1  0.423433  0.997247  0.182034  1
  O  O29  1  0.226426  0.748377  0.923256  1
  O  O30  1  0.726589  0.423382  0.248190  1
  O  O31  1  0.422611  0.399075  0.988155  1
  O  O32  1  0.733387  0.244211  0.599275  1
  O  O33  1  0.764084  0.093482  0.904486  1
  O  O34  1  0.728491  0.600136  0.418469  1
  O  O35  1  0.532678  0.822364  0.588891  1
  O  O36  1  0.756796  0.906659  0.247157  1
  O  O37  1  0.896818  0.710129  0.494247  1
  O  O38  1  0.928061  0.471411  0.903778  1
  O  O39  1  0.957589  0.906668  0.697525  1
