# generated using pymatgen
data_Li6Mn3Nb(PO4)6
_symmetry_space_group_name_H-M   'P 1'
_cell_length_a   8.87386938
_cell_length_b   8.78554286
_cell_length_c   8.84635604
_cell_angle_alpha   60.83727908
_cell_angle_beta   60.02040837
_cell_angle_gamma   61.26314346
_symmetry_Int_Tables_number   1
_chemical_formula_structural   Li6Mn3Nb(PO4)6
_chemical_formula_sum   'Li6 Mn3 Nb1 P6 O24'
_cell_volume   495.33911036
_cell_formula_units_Z   1
loop_
 _symmetry_equiv_pos_site_id
 _symmetry_equiv_pos_as_xyz
  1  'x, y, z'
loop_
 _atom_site_type_symbol
 _atom_site_label
 _atom_site_symmetry_multiplicity
 _atom_site_fract_x
 _atom_site_fract_y
 _atom_site_fract_z
 _atom_site_occupancy
  Li  Li0  1  0.033822  0.026293  0.009989  1
  Li  Li1  1  0.730540  0.163286  0.353218  1
  Li  Li2  1  0.471309  0.502096  0.490103  1
  Li  Li3  1  0.311877  0.837109  0.643928  1
  Li  Li4  1  0.643579  0.311473  0.834617  1
  Li  Li5  1  0.840954  0.644128  0.306296  1
  Mn  Mn6  1  0.150123  0.146522  0.145848  1
  Mn  Mn7  1  0.349143  0.364373  0.349675  1
  Mn  Mn8  1  0.654625  0.657470  0.652644  1
  Nb  Nb9  1  0.850133  0.846969  0.853389  1
  P  P10  1  0.054993  0.754669  0.434423  1
  P  P11  1  0.444033  0.050934  0.753566  1
  P  P12  1  0.747233  0.437738  0.048879  1
  P  P13  1  0.246296  0.540397  0.953235  1
  P  P14  1  0.550275  0.957156  0.254333  1
  P  P15  1  0.952619  0.248599  0.534875  1
  O  O16  1  0.125123  0.264105  0.513478  1
  O  O17  1  0.269291  0.532514  0.115573  1
  O  O18  1  0.065983  0.927127  0.257924  1
  O  O19  1  0.558324  0.110249  0.284635  1
  O  O20  1  0.236891  0.606796  0.438112  1
  O  O21  1  0.973140  0.820607  0.606899  1
  O  O22  1  0.260862  0.083411  0.913424  1
  O  O23  1  0.475787  0.223379  0.589230  1
  O  O24  1  0.599740  0.439887  0.239047  1
  O  O25  1  0.184076  0.384168  0.995788  1
  O  O26  1  0.094156  0.734470  0.896752  1
  O  O27  1  0.388711  0.011466  0.202266  1
  O  O28  1  0.608246  0.966953  0.828038  1
  O  O29  1  0.899239  0.252330  0.073582  1
  O  O30  1  0.820879  0.603510  0.975521  1
  O  O31  1  0.414632  0.550744  0.771043  1
  O  O32  1  0.559504  0.773018  0.418615  1
  O  O33  1  0.741386  0.899887  0.093469  1
  O  O34  1  0.972440  0.199135  0.378595  1
  O  O35  1  0.777771  0.417545  0.553602  1
  O  O36  1  0.455213  0.902380  0.699976  1
  O  O37  1  0.898102  0.093926  0.730381  1
  O  O38  1  0.680674  0.467920  0.903341  1
  O  O39  1  0.908275  0.694259  0.452692  1
