# generated using pymatgen
data_Li3V3Cr2O10
_symmetry_space_group_name_H-M   'P 1'
_cell_length_a   5.16842747
_cell_length_b   5.11729824
_cell_length_c   8.10875104
_cell_angle_alpha   111.38247016
_cell_angle_beta   99.42116350
_cell_angle_gamma   100.36398540
_symmetry_Int_Tables_number   1
_chemical_formula_structural   Li3V3Cr2O10
_chemical_formula_sum   'Li3 V3 Cr2 O10'
_cell_volume   190.18933245
_cell_formula_units_Z   1
loop_
 _symmetry_equiv_pos_site_id
 _symmetry_equiv_pos_as_xyz
  1  'x, y, z'
loop_
 _atom_site_type_symbol
 _atom_site_label
 _atom_site_symmetry_multiplicity
 _atom_site_fract_x
 _atom_site_fract_y
 _atom_site_fract_z
 _atom_site_occupancy
  Li  Li0  1  0.211785  0.930828  0.425255  1
  Li  Li1  1  0.500000  0.500000  0.500000  1
  Li  Li2  1  0.788215  0.069172  0.574745  1
  V  V3  1  0.000000  0.500000  0.000000  1
  V  V4  1  0.682318  0.877783  0.882452  1
  V  V5  1  0.317682  0.122217  0.117548  1
  Cr  Cr6  1  0.105654  0.703756  0.690246  1
  Cr  Cr7  1  0.894346  0.296244  0.309754  1
  O  O8  1  0.029176  0.096409  0.863659  1
  O  O9  1  0.326314  0.743506  0.939986  1
  O  O10  1  0.116303  0.311493  0.532389  1
  O  O11  1  0.221290  0.467314  0.221465  1
  O  O12  1  0.470946  0.878003  0.672084  1
  O  O13  1  0.529054  0.121997  0.327916  1
  O  O14  1  0.778710  0.532686  0.778535  1
  O  O15  1  0.883697  0.688507  0.467611  1
  O  O16  1  0.673686  0.256494  0.060014  1
  O  O17  1  0.970824  0.903591  0.136341  1
