# generated using pymatgen
data_Li2VCr2O6
_symmetry_space_group_name_H-M   'P 1'
_cell_length_a   7.87141091
_cell_length_b   7.87141038
_cell_length_c   6.00303649
_cell_angle_alpha   101.90466346
_cell_angle_beta   101.90465697
_cell_angle_gamma   69.35987205
_symmetry_Int_Tables_number   1
_chemical_formula_structural   Li2VCr2O6
_chemical_formula_sum   'Li6 V3 Cr6 O18'
_cell_volume   336.93979160
_cell_formula_units_Z   3
loop_
 _symmetry_equiv_pos_site_id
 _symmetry_equiv_pos_as_xyz
  1  'x, y, z'
loop_
 _atom_site_type_symbol
 _atom_site_label
 _atom_site_symmetry_multiplicity
 _atom_site_fract_x
 _atom_site_fract_y
 _atom_site_fract_z
 _atom_site_occupancy
  Li  Li0  1  0.000310  0.332469  0.839724  1
  Li  Li1  1  0.332469  0.000310  0.839724  1
  Li  Li2  1  0.666357  0.334198  0.493609  1
  Li  Li3  1  0.334198  0.666357  0.493609  1
  Li  Li4  1  0.664085  0.002582  0.166667  1
  Li  Li5  1  0.002582  0.664085  0.166667  1
  V  V6  1  0.669342  0.997325  0.666667  1
  V  V7  1  0.333333  0.333333  0.666667  1
  V  V8  1  0.997325  0.669342  0.666667  1
  Cr  Cr9  1  0.002226  0.331675  0.330684  1
  Cr  Cr10  1  0.668551  0.668551  0.330424  1
  Cr  Cr11  1  0.331675  0.002226  0.330684  1
  Cr  Cr12  1  0.664441  0.334991  0.002650  1
  Cr  Cr13  1  0.334991  0.664441  0.002650  1
  Cr  Cr14  1  0.998116  0.998116  0.002909  1
  O  O15  1  0.828579  0.828579  0.437362  1
  O  O16  1  0.832312  0.489024  0.107017  1
  O  O17  1  0.489024  0.832312  0.107017  1
  O  O18  1  0.838088  0.838088  0.895971  1
  O  O19  1  0.849986  0.508548  0.568812  1
  O  O20  1  0.508548  0.849986  0.568812  1
  O  O21  1  0.834355  0.177643  0.226317  1
  O  O22  1  0.511592  0.511592  0.236132  1
  O  O23  1  0.177643  0.834355  0.226317  1
  O  O24  1  0.816680  0.158119  0.764521  1
  O  O25  1  0.483528  0.483528  0.754282  1
  O  O26  1  0.158119  0.816680  0.764521  1
  O  O27  1  0.501663  0.158706  0.444542  1
  O  O28  1  0.158706  0.501663  0.444542  1
  O  O29  1  0.155075  0.155075  0.097201  1
  O  O30  1  0.507960  0.165004  0.888791  1
  O  O31  1  0.165004  0.507960  0.888791  1
  O  O32  1  0.183139  0.183139  0.579052  1
