# generated using pymatgen
data_Na2Li2V3P2O13
_symmetry_space_group_name_H-M   'P 1'
_cell_length_a   8.81368160
_cell_length_b   10.30746017
_cell_length_c   12.34869795
_cell_angle_alpha   90.00001745
_cell_angle_beta   89.99835272
_cell_angle_gamma   88.10605638
_symmetry_Int_Tables_number   1
_chemical_formula_structural   Na2Li2V3P2O13
_chemical_formula_sum   'Na8 Li8 V12 P8 O52'
_cell_volume   1121.22526900
_cell_formula_units_Z   4
loop_
 _symmetry_equiv_pos_site_id
 _symmetry_equiv_pos_as_xyz
  1  'x, y, z'
loop_
 _atom_site_type_symbol
 _atom_site_label
 _atom_site_symmetry_multiplicity
 _atom_site_fract_x
 _atom_site_fract_y
 _atom_site_fract_z
 _atom_site_occupancy
  Na  Na0  1  0.879570  0.215404  0.972240  1
  Na  Na1  1  0.379566  0.215390  0.527776  1
  Na  Na2  1  0.432243  0.298294  0.971551  1
  Na  Na3  1  0.932252  0.298296  0.528439  1
  Na  Na4  1  0.567765  0.701704  0.028449  1
  Na  Na5  1  0.067753  0.701707  0.471564  1
  Na  Na6  1  0.120433  0.784593  0.027765  1
  Na  Na7  1  0.620443  0.784598  0.472236  1
  Li  Li8  1  0.690210  0.236860  0.413892  1
  Li  Li9  1  0.190181  0.236851  0.086078  1
  Li  Li10  1  0.131513  0.257884  0.763396  1
  Li  Li11  1  0.631518  0.257883  0.736611  1
  Li  Li12  1  0.368474  0.742131  0.263405  1
  Li  Li13  1  0.868477  0.742128  0.236608  1
  Li  Li14  1  0.809800  0.763149  0.913917  1
  Li  Li15  1  0.309797  0.763162  0.586091  1
  V  V16  1  0.743019  0.026508  0.622760  1
  V  V17  1  0.243014  0.026500  0.877237  1
  V  V18  1  0.927380  0.247018  0.243148  1
  V  V19  1  0.427465  0.247019  0.256861  1
  V  V20  1  0.257972  0.474099  0.642120  1
  V  V21  1  0.757971  0.474102  0.857884  1
  V  V22  1  0.242057  0.525948  0.142096  1
  V  V23  1  0.742035  0.525923  0.357883  1
  V  V24  1  0.572587  0.752972  0.743152  1
  V  V25  1  0.072605  0.752965  0.756852  1
  V  V26  1  0.256951  0.973487  0.377240  1
  V  V27  1  0.756957  0.973485  0.122744  1
  P  P28  1  0.620270  0.022780  0.873502  1
  P  P29  1  0.120274  0.022767  0.626509  1
  P  P30  1  0.628323  0.480104  0.615197  1
  P  P31  1  0.128327  0.480117  0.884784  1
  P  P32  1  0.871653  0.519943  0.115219  1
  P  P33  1  0.371666  0.519968  0.384796  1
  P  P34  1  0.879744  0.977194  0.373456  1
  P  P35  1  0.379755  0.977169  0.126528  1
  O  O36  1  0.718762  0.080625  0.781233  1
  O  O37  1  0.218770  0.080618  0.718761  1
  O  O38  1  0.692400  0.062560  0.981548  1
  O  O39  1  0.192398  0.062565  0.518442  1
  O  O40  1  0.958220  0.084743  0.639378  1
  O  O41  1  0.458221  0.084755  0.860641  1
  O  O42  1  0.371533  0.112934  0.356003  1
  O  O43  1  0.871535  0.112929  0.143972  1
  O  O44  1  0.380994  0.128329  0.129608  1
  O  O45  1  0.881003  0.128310  0.370395  1
  O  O46  1  0.153803  0.163824  0.930406  1
  O  O47  1  0.653809  0.163817  0.569587  1
  O  O48  1  0.617913  0.243801  0.259851  1
  O  O49  1  0.117905  0.243805  0.240167  1
  O  O50  1  0.660539  0.343276  0.896260  1
  O  O51  1  0.160538  0.343258  0.603755  1
  O  O52  1  0.892910  0.371079  0.117115  1
  O  O53  1  0.392909  0.371054  0.382884  1
  O  O54  1  0.359334  0.376546  0.153838  1
  O  O55  1  0.859344  0.376546  0.346169  1
  O  O56  1  0.979235  0.409656  0.854006  1
  O  O57  1  0.479233  0.409649  0.645998  1
  O  O58  1  0.187369  0.436159  0.997721  1
  O  O59  1  0.687366  0.436168  0.502293  1
  O  O60  1  0.250090  0.428653  0.801467  1
  O  O61  1  0.750085  0.428652  0.698546  1
  O  O62  1  0.249916  0.571335  0.301458  1
  O  O63  1  0.749919  0.571336  0.198529  1
  O  O64  1  0.312630  0.563822  0.497708  1
  O  O65  1  0.812635  0.563833  0.002282  1
  O  O66  1  0.520742  0.590329  0.354011  1
  O  O67  1  0.020762  0.590336  0.145992  1
  O  O68  1  0.640687  0.623449  0.846178  1
  O  O69  1  0.140682  0.623438  0.653827  1
  O  O70  1  0.607086  0.628887  0.617124  1
  O  O71  1  0.107097  0.628880  0.882887  1
  O  O72  1  0.839452  0.656715  0.396251  1
  O  O73  1  0.339450  0.656708  0.103738  1
  O  O74  1  0.882129  0.756185  0.759817  1
  O  O75  1  0.382124  0.756196  0.740183  1
  O  O76  1  0.846181  0.836178  0.069583  1
  O  O77  1  0.346174  0.836204  0.430412  1
  O  O78  1  0.619005  0.871720  0.870386  1
  O  O79  1  0.119015  0.871722  0.629617  1
  O  O80  1  0.128475  0.887080  0.856041  1
  O  O81  1  0.628480  0.887081  0.643964  1
  O  O82  1  0.541740  0.915269  0.139351  1
  O  O83  1  0.041763  0.915266  0.360627  1
  O  O84  1  0.807599  0.937437  0.481595  1
  O  O85  1  0.307585  0.937445  0.018413  1
  O  O86  1  0.281236  0.919388  0.218741  1
  O  O87  1  0.781234  0.919397  0.281257  1
