# generated using pymatgen
data_LiVGeO5
_symmetry_space_group_name_H-M   'P 1'
_cell_length_a   6.57267181
_cell_length_b   6.46030391
_cell_length_c   4.76175774
_cell_angle_alpha   90.00000000
_cell_angle_beta   87.30816799
_cell_angle_gamma   90.00000000
_symmetry_Int_Tables_number   1
_chemical_formula_structural   LiVGeO5
_chemical_formula_sum   'Li2 V2 Ge2 O10'
_cell_volume   201.96807149
_cell_formula_units_Z   2
loop_
 _symmetry_equiv_pos_site_id
 _symmetry_equiv_pos_as_xyz
  1  'x, y, z'
loop_
 _atom_site_type_symbol
 _atom_site_label
 _atom_site_symmetry_multiplicity
 _atom_site_fract_x
 _atom_site_fract_y
 _atom_site_fract_z
 _atom_site_occupancy
  Li  Li0  1  0.500000  0.000000  0.000000  1
  Li  Li1  1  0.500000  0.500000  0.000000  1
  V  V2  1  0.245998  0.250000  0.613526  1
  V  V3  1  0.754002  0.750000  0.386474  1
  Ge  Ge4  1  0.256292  0.750000  0.502763  1
  Ge  Ge5  1  0.743708  0.250000  0.497237  1
  O  O6  1  0.027673  0.750000  0.320795  1
  O  O7  1  0.285638  0.250000  0.272008  1
  O  O8  1  0.271295  0.529721  0.723514  1
  O  O9  1  0.271295  0.970279  0.723514  1
  O  O10  1  0.459801  0.750000  0.247412  1
  O  O11  1  0.540199  0.250000  0.752588  1
  O  O12  1  0.728705  0.029721  0.276486  1
  O  O13  1  0.728705  0.470279  0.276486  1
  O  O14  1  0.714362  0.750000  0.727992  1
  O  O15  1  0.972327  0.250000  0.679205  1
