# generated using pymatgen
data_Li5Mn6(BO3)6
_symmetry_space_group_name_H-M   'P 1'
_cell_length_a   9.34902903
_cell_length_b   5.26762160
_cell_length_c   8.29569735
_cell_angle_alpha   89.04138784
_cell_angle_beta   76.37634340
_cell_angle_gamma   105.78068572
_symmetry_Int_Tables_number   1
_chemical_formula_structural   Li5Mn6(BO3)6
_chemical_formula_sum   'Li5 Mn6 B6 O18'
_cell_volume   380.65178339
_cell_formula_units_Z   1
loop_
 _symmetry_equiv_pos_site_id
 _symmetry_equiv_pos_as_xyz
  1  'x, y, z'
loop_
 _atom_site_type_symbol
 _atom_site_label
 _atom_site_symmetry_multiplicity
 _atom_site_fract_x
 _atom_site_fract_y
 _atom_site_fract_z
 _atom_site_occupancy
  Li  Li0  1  0.709470  0.018565  0.368289  1
  Li  Li1  1  0.639486  0.667679  0.958384  1
  Li  Li2  1  0.359802  0.332601  0.041723  1
  Li  Li3  1  0.305316  0.999254  0.623003  1
  Li  Li4  1  0.028577  0.669996  0.704633  1
  Mn  Mn5  1  0.792219  0.220366  0.029715  1
  Mn  Mn6  1  0.884301  0.124346  0.630018  1
  Mn  Mn7  1  0.549799  0.450621  0.304050  1
  Mn  Mn8  1  0.457714  0.559797  0.692884  1
  Mn  Mn9  1  0.109019  0.876755  0.356587  1
  Mn  Mn10  1  0.211055  0.772634  0.973876  1
  B  B11  1  0.888628  0.770435  0.144767  1
  B  B12  1  0.773835  0.559833  0.518429  1
  B  B13  1  0.442952  0.893591  0.183369  1
  B  B14  1  0.558817  0.110261  0.816129  1
  B  B15  1  0.222146  0.435190  0.491598  1
  B  B16  1  0.111594  0.224008  0.848290  1
  O  O17  1  0.878044  0.018724  0.174461  1
  O  O18  1  0.989093  0.310411  0.818917  1
  O  O19  1  0.895722  0.740077  0.564238  1
  O  O20  1  0.770094  0.585846  0.095591  1
  O  O21  1  0.765235  0.299442  0.507283  1
  O  O22  1  0.657989  0.658094  0.482428  1
  O  O23  1  0.561645  0.074017  0.232788  1
  O  O24  1  0.682814  0.025144  0.842618  1
  O  O25  1  0.450406  0.640704  0.151867  1
  O  O26  1  0.550438  0.362565  0.847991  1
  O  O27  1  0.319491  0.977579  0.155829  1
  O  O28  1  0.438316  0.928506  0.769841  1
  O  O29  1  0.350463  0.361050  0.514057  1
  O  O30  1  0.213869  0.690424  0.511744  1
  O  O31  1  0.229998  0.404691  0.897087  1
  O  O32  1  0.102896  0.236096  0.459280  1
  O  O33  1  0.013596  0.695154  0.170644  1
  O  O34  1  0.117730  0.970457  0.818673  1
