# generated using pymatgen
data_LiV2OF5
_symmetry_space_group_name_H-M   'P 1'
_cell_length_a   5.22683245
_cell_length_b   5.51738744
_cell_length_c   17.43688730
_cell_angle_alpha   92.75873330
_cell_angle_beta   98.62264644
_cell_angle_gamma   61.73372373
_symmetry_Int_Tables_number   1
_chemical_formula_structural   LiV2OF5
_chemical_formula_sum   'Li4 V8 O4 F20'
_cell_volume   437.73394291
_cell_formula_units_Z   4
loop_
 _symmetry_equiv_pos_site_id
 _symmetry_equiv_pos_as_xyz
  1  'x, y, z'
loop_
 _atom_site_type_symbol
 _atom_site_label
 _atom_site_symmetry_multiplicity
 _atom_site_fract_x
 _atom_site_fract_y
 _atom_site_fract_z
 _atom_site_occupancy
  Li  Li0  1  0.437495  0.213078  0.066781  1
  Li  Li1  1  0.433745  0.700482  0.571900  1
  Li  Li2  1  0.812336  0.174603  0.803179  1
  Li  Li3  1  0.833892  0.661700  0.308278  1
  V  V4  1  0.015922  0.011702  0.997383  1
  V  V5  1  0.245918  0.362943  0.882483  1
  V  V6  1  0.738908  0.141037  0.627610  1
  V  V7  1  0.502271  0.734116  0.747394  1
  V  V8  1  0.280296  0.863190  0.377630  1
  V  V9  1  0.523327  0.231181  0.246847  1
  V  V10  1  0.976327  0.512012  0.492525  1
  V  V11  1  0.757688  0.643758  0.128150  1
  O  O12  1  0.187493  0.213678  0.967557  1
  O  O13  1  0.703909  0.437701  0.687436  1
  O  O14  1  0.683618  0.661257  0.407452  1
  O  O15  1  0.727199  0.937647  0.187461  1
  F  F16  1  0.235780  0.063371  0.809378  1
  F  F17  1  0.233942  0.198270  0.434817  1
  F  F18  1  0.247561  0.676693  0.940135  1
  F  F19  1  0.310902  0.347056  0.585576  1
  F  F20  1  0.322505  0.527849  0.789400  1
  F  F21  1  0.328249  0.032308  0.283979  1
  F  F22  1  0.179320  0.907996  0.651249  1
  F  F23  1  0.189710  0.729300  0.474153  1
  F  F24  1  0.694992  0.145573  0.900894  1
  F  F25  1  0.197468  0.405941  0.150199  1
  F  F26  1  0.254415  0.554081  0.311615  1
  F  F27  1  0.326587  0.842519  0.090991  1
  F  F28  1  0.839999  0.049487  0.340243  1
  F  F29  1  0.790117  0.308690  0.534641  1
  F  F30  1  0.814198  0.566207  0.840328  1
  F  F31  1  0.685962  0.967308  0.723777  1
  F  F32  1  0.703154  0.469110  0.224830  1
  F  F33  1  0.739718  0.811697  0.565635  1
  F  F34  1  0.747001  0.320795  0.063417  1
  F  F35  1  0.799257  0.825286  0.034731  1
