# generated using pymatgen
data_Li5Co4(Si3O10)2
_symmetry_space_group_name_H-M   'P 1'
_cell_length_a   5.41299223
_cell_length_b   5.43804486
_cell_length_c   17.05125573
_cell_angle_alpha   85.79614040
_cell_angle_beta   94.03529951
_cell_angle_gamma   121.02521995
_symmetry_Int_Tables_number   1
_chemical_formula_structural   Li5Co4(Si3O10)2
_chemical_formula_sum   'Li5 Co4 Si6 O20'
_cell_volume   428.64843803
_cell_formula_units_Z   1
loop_
 _symmetry_equiv_pos_site_id
 _symmetry_equiv_pos_as_xyz
  1  'x, y, z'
loop_
 _atom_site_type_symbol
 _atom_site_label
 _atom_site_symmetry_multiplicity
 _atom_site_fract_x
 _atom_site_fract_y
 _atom_site_fract_z
 _atom_site_occupancy
  Li  Li0  1  0.436153  0.842199  0.761261  1
  Li  Li1  1  0.336112  0.827968  0.446242  1
  Li  Li2  1  0.674771  0.180591  0.551777  1
  Li  Li3  1  0.557716  0.163081  0.249571  1
  Li  Li4  1  0.834754  0.336033  0.045952  1
  Co  Co5  1  0.002544  0.826890  0.581417  1
  Co  Co6  1  0.172378  0.986769  0.082673  1
  Co  Co7  1  0.815587  0.990639  0.911910  1
  Co  Co8  1  0.995921  0.187252  0.408778  1
  Si  Si9  1  0.139640  0.137925  0.748777  1
  Si  Si10  1  0.331385  0.489499  0.602015  1
  Si  Si11  1  0.473125  0.299708  0.901965  1
  Si  Si12  1  0.511298  0.671356  0.098295  1
  Si  Si13  1  0.682882  0.528665  0.403814  1
  Si  Si14  1  0.856927  0.857876  0.249922  1
  O  O15  1  0.115648  0.900151  0.691646  1
  O  O16  1  0.141456  0.954036  0.198687  1
  O  O17  1  0.277509  0.456423  0.698604  1
  O  O18  1  0.058960  0.203968  0.561198  1
  O  O19  1  0.337743  0.780940  0.566872  1
  O  O20  1  0.525353  0.623579  0.897308  1
  O  O21  1  0.187950  0.088603  0.954484  1
  O  O22  1  0.214605  0.670872  0.069505  1
  O  O23  1  0.384602  0.525530  0.413087  1
  O  O24  1  0.394387  0.166516  0.813545  1
  O  O25  1  0.569334  0.760227  0.190121  1
  O  O26  1  0.637907  0.503932  0.588512  1
  O  O27  1  0.754630  0.287473  0.935524  1
  O  O28  1  0.792973  0.930344  0.051656  1
  O  O29  1  0.499209  0.367398  0.088669  1
  O  O30  1  0.663434  0.229009  0.437403  1
  O  O31  1  0.956068  0.807165  0.449486  1
  O  O32  1  0.764207  0.564000  0.308113  1
  O  O33  1  0.857172  0.064546  0.795100  1
  O  O34  1  0.874029  0.107918  0.298162  1
