# generated using pymatgen
data_Mn11Fe(PO4)12
_symmetry_space_group_name_H-M   'P 1'
_cell_length_a   4.92977973
_cell_length_b   9.82961859
_cell_length_c   18.10340350
_cell_angle_alpha   90.00000000
_cell_angle_beta   90.00000000
_cell_angle_gamma   89.88754920
_symmetry_Int_Tables_number   1
_chemical_formula_structural   Mn11Fe(PO4)12
_chemical_formula_sum   'Mn11 Fe1 P12 O48'
_cell_volume   877.25040225
_cell_formula_units_Z   1
loop_
 _symmetry_equiv_pos_site_id
 _symmetry_equiv_pos_as_xyz
  1  'x, y, z'
loop_
 _atom_site_type_symbol
 _atom_site_label
 _atom_site_symmetry_multiplicity
 _atom_site_fract_x
 _atom_site_fract_y
 _atom_site_fract_z
 _atom_site_occupancy
  Mn  Mn0  1  0.069868  0.715489  0.250000  1
  Mn  Mn1  1  0.069864  0.715574  0.583665  1
  Mn  Mn2  1  0.069864  0.715574  0.916335  1
  Mn  Mn3  1  0.432303  0.216880  0.582799  1
  Mn  Mn4  1  0.432303  0.216880  0.917201  1
  Mn  Mn5  1  0.430059  0.215796  0.250000  1
  Mn  Mn6  1  0.569565  0.784447  0.083230  1
  Mn  Mn7  1  0.569565  0.784447  0.416770  1
  Mn  Mn8  1  0.568557  0.784110  0.750000  1
  Mn  Mn9  1  0.928965  0.285157  0.082996  1
  Mn  Mn10  1  0.928965  0.285157  0.417004  1
  Fe  Fe11  1  0.958263  0.275464  0.750000  1
  P  P12  1  0.084956  0.599373  0.083223  1
  P  P13  1  0.084956  0.599373  0.416777  1
  P  P14  1  0.086629  0.599975  0.750000  1
  P  P15  1  0.415169  0.099401  0.083263  1
  P  P16  1  0.415169  0.099401  0.416737  1
  P  P17  1  0.412940  0.096087  0.750000  1
  P  P18  1  0.584530  0.900605  0.250000  1
  P  P19  1  0.583886  0.900730  0.583416  1
  P  P20  1  0.583886  0.900730  0.916584  1
  P  P21  1  0.914668  0.401039  0.250000  1
  P  P22  1  0.915001  0.400644  0.584714  1
  P  P23  1  0.915001  0.400644  0.915286  1
  O  O24  1  0.146328  0.445020  0.083180  1
  O  O25  1  0.146328  0.445020  0.416820  1
  O  O26  1  0.149232  0.447009  0.750000  1
  O  O27  1  0.227468  0.670648  0.016554  1
  O  O28  1  0.227688  0.670633  0.150005  1
  O  O29  1  0.227688  0.670633  0.349995  1
  O  O30  1  0.227468  0.670648  0.483446  1
  O  O31  1  0.228177  0.672520  0.683242  1
  O  O32  1  0.228177  0.672520  0.816758  1
  O  O33  1  0.225587  0.381478  0.250000  1
  O  O34  1  0.226795  0.381712  0.583703  1
  O  O35  1  0.226795  0.381712  0.916297  1
  O  O36  1  0.273781  0.881147  0.250000  1
  O  O37  1  0.273367  0.881420  0.916898  1
  O  O38  1  0.273367  0.881420  0.583102  1
  O  O39  1  0.272086  0.171048  0.016374  1
  O  O40  1  0.272119  0.171350  0.149885  1
  O  O41  1  0.272086  0.171048  0.483626  1
  O  O42  1  0.264402  0.170338  0.684186  1
  O  O43  1  0.272119  0.171350  0.350115  1
  O  O44  1  0.264402  0.170338  0.815814  1
  O  O45  1  0.353810  0.945643  0.083362  1
  O  O46  1  0.353810  0.945643  0.416638  1
  O  O47  1  0.344378  0.943494  0.750000  1
  O  O48  1  0.645697  0.054799  0.250000  1
  O  O49  1  0.644825  0.055026  0.584046  1
  O  O50  1  0.644825  0.055026  0.915954  1
  O  O51  1  0.727564  0.829159  0.183263  1
  O  O52  1  0.727564  0.829159  0.316737  1
  O  O53  1  0.727375  0.829476  0.516677  1
  O  O54  1  0.726878  0.829706  0.849836  1
  O  O55  1  0.727375  0.829476  0.983323  1
  O  O56  1  0.726878  0.829706  0.650164  1
  O  O57  1  0.725796  0.119241  0.083081  1
  O  O58  1  0.725796  0.119241  0.416919  1
  O  O59  1  0.719378  0.117434  0.750000  1
  O  O60  1  0.774055  0.618711  0.083269  1
  O  O61  1  0.775975  0.619872  0.750000  1
  O  O62  1  0.774055  0.618711  0.416731  1
  O  O63  1  0.772082  0.329454  0.183253  1
  O  O64  1  0.772082  0.329454  0.316747  1
  O  O65  1  0.773237  0.328361  0.517753  1
  O  O66  1  0.773237  0.328361  0.982247  1
  O  O67  1  0.776379  0.329351  0.848127  1
  O  O68  1  0.776379  0.329351  0.651873  1
  O  O69  1  0.853102  0.555018  0.250000  1
  O  O70  1  0.853537  0.554567  0.583920  1
  O  O71  1  0.853537  0.554567  0.916080  1
