# generated using pymatgen
data_K8Li9Cr4O16
_symmetry_space_group_name_H-M   'P 1'
_cell_length_a   5.60777699
_cell_length_b   9.12650968
_cell_length_c   10.48474937
_cell_angle_alpha   91.69184852
_cell_angle_beta   80.97756644
_cell_angle_gamma   90.34351927
_symmetry_Int_Tables_number   1
_chemical_formula_structural   K8Li9Cr4O16
_chemical_formula_sum   'K8 Li9 Cr4 O16'
_cell_volume   529.73258493
_cell_formula_units_Z   1
loop_
 _symmetry_equiv_pos_site_id
 _symmetry_equiv_pos_as_xyz
  1  'x, y, z'
loop_
 _atom_site_type_symbol
 _atom_site_label
 _atom_site_symmetry_multiplicity
 _atom_site_fract_x
 _atom_site_fract_y
 _atom_site_fract_z
 _atom_site_occupancy
  K  K0  1  0.173155  0.997076  0.128480  1
  K  K1  1  0.109042  0.284847  0.625927  1
  K  K2  1  0.374968  0.492964  0.350407  1
  K  K3  1  0.646928  0.265070  0.130294  1
  K  K4  1  0.350935  0.728136  0.875119  1
  K  K5  1  0.641063  0.506839  0.647600  1
  K  K6  1  0.895231  0.729360  0.379523  1
  K  K7  1  0.831952  0.991583  0.862663  1
  Li  Li8  1  0.072033  0.248669  0.298706  1
  Li  Li9  1  0.274202  0.516831  0.075619  1
  Li  Li10  1  0.168816  0.014954  0.441932  1
  Li  Li11  1  0.419246  0.749030  0.190956  1
  Li  Li12  1  0.417948  0.028099  0.697230  1
  Li  Li13  1  0.614071  0.970181  0.293645  1
  Li  Li14  1  0.588341  0.253257  0.807655  1
  Li  Li15  1  0.710553  0.488779  0.930304  1
  Li  Li16  1  0.917589  0.752255  0.695873  1
  Cr  Cr17  1  0.171774  0.282417  0.939615  1
  Cr  Cr18  1  0.344132  0.789770  0.553567  1
  Cr  Cr19  1  0.663178  0.202341  0.451010  1
  Cr  Cr20  1  0.829772  0.713227  0.058262  1
  O  O21  1  0.120652  0.710030  0.130258  1
  O  O22  1  0.148121  0.302514  0.114118  1
  O  O23  1  0.147148  0.938996  0.624670  1
  O  O24  1  0.173558  0.623719  0.583609  1
  O  O25  1  0.388992  0.821951  0.380227  1
  O  O26  1  0.390312  0.181498  0.374993  1
  O  O27  1  0.327845  0.112624  0.879755  1
  O  O28  1  0.591167  0.564499  0.111038  1
  O  O29  1  0.387945  0.422735  0.880713  1
  O  O30  1  0.681313  0.898922  0.121801  1
  O  O31  1  0.602035  0.801711  0.635605  1
  O  O32  1  0.599264  0.202076  0.625134  1
  O  O33  1  0.815640  0.372194  0.408842  1
  O  O34  1  0.879918  0.070253  0.365732  1
  O  O35  1  0.840580  0.684635  0.874113  1
  O  O36  1  0.885622  0.292865  0.880604  1
