# generated using pymatgen
data_LiNbVO4
_symmetry_space_group_name_H-M   'P 1'
_cell_length_a   6.11026470
_cell_length_b   6.16180512
_cell_length_c   6.16180523
_cell_angle_alpha   60.14295124
_cell_angle_beta   60.27631241
_cell_angle_gamma   60.27631185
_symmetry_Int_Tables_number   1
_chemical_formula_structural   LiNbVO4
_chemical_formula_sum   'Li2 Nb2 V2 O8'
_cell_volume   164.90471645
_cell_formula_units_Z   2
loop_
 _symmetry_equiv_pos_site_id
 _symmetry_equiv_pos_as_xyz
  1  'x, y, z'
loop_
 _atom_site_type_symbol
 _atom_site_label
 _atom_site_symmetry_multiplicity
 _atom_site_fract_x
 _atom_site_fract_y
 _atom_site_fract_z
 _atom_site_occupancy
  Li  Li0  1  0.122196  0.127804  0.127804  1
  Li  Li1  1  0.877804  0.872196  0.872196  1
  Nb  Nb2  1  0.000000  0.500000  0.500000  1
  Nb  Nb3  1  0.500000  0.500000  0.500000  1
  V  V4  1  0.500000  0.000000  0.500000  1
  V  V5  1  0.500000  0.500000  0.000000  1
  O  O6  1  0.246625  0.269862  0.269862  1
  O  O7  1  0.258171  0.259331  0.724327  1
  O  O8  1  0.258171  0.724327  0.259331  1
  O  O9  1  0.713652  0.269862  0.269862  1
  O  O10  1  0.286348  0.730138  0.730138  1
  O  O11  1  0.741829  0.740669  0.275673  1
  O  O12  1  0.741829  0.275673  0.740669  1
  O  O13  1  0.753375  0.730138  0.730138  1
