# generated using pymatgen
data_Co21O40
_symmetry_space_group_name_H-M   'P 1'
_cell_length_a   9.83071159
_cell_length_b   7.99929275
_cell_length_c   9.83125981
_cell_angle_alpha   114.01606752
_cell_angle_beta   80.44100108
_cell_angle_gamma   114.04062460
_symmetry_Int_Tables_number   1
_chemical_formula_structural   Co21O40
_chemical_formula_sum   'Co21 O40'
_cell_volume   644.93292436
_cell_formula_units_Z   1
loop_
 _symmetry_equiv_pos_site_id
 _symmetry_equiv_pos_as_xyz
  1  'x, y, z'
loop_
 _atom_site_type_symbol
 _atom_site_label
 _atom_site_symmetry_multiplicity
 _atom_site_fract_x
 _atom_site_fract_y
 _atom_site_fract_z
 _atom_site_occupancy
  Co  Co0  1  0.103365  0.400891  0.198959  1
  Co  Co1  1  0.003451  0.502342  0.000910  1
  Co  Co2  1  0.096535  0.397968  0.699067  1
  Co  Co3  1  0.200865  0.798493  0.896537  1
  Co  Co4  1  0.195076  0.295395  0.400696  1
  Co  Co5  1  0.401943  0.599565  0.297550  1
  Co  Co6  1  0.299572  0.195841  0.095763  1
  Co  Co7  1  0.295928  0.200148  0.600370  1
  Co  Co8  1  0.499122  0.999375  0.994895  1
  Co  Co9  1  0.602208  0.902204  0.201893  1
  Co  Co10  1  0.398960  0.097984  0.796664  1
  Co  Co11  1  0.549942  0.324966  0.350001  1
  Co  Co12  1  0.698046  0.800090  0.402477  1
  Co  Co13  1  0.497815  0.998126  0.498096  1
  Co  Co14  1  0.600876  0.405418  0.705112  1
  Co  Co15  1  0.701054  0.802422  0.903335  1
  Co  Co16  1  0.800417  0.700494  0.604233  1
  Co  Co17  1  0.804028  0.203833  0.099663  1
  Co  Co18  1  0.904962  0.599665  0.299295  1
  Co  Co19  1  0.899109  0.601108  0.803491  1
  Co  Co20  1  0.996610  0.998520  0.501025  1
  O  O21  1  0.997189  0.273418  0.018625  1
  O  O22  1  0.086432  0.626098  0.194923  1
  O  O23  1  0.009885  0.731159  0.983313  1
  O  O24  1  0.090129  0.637800  0.716708  1
  O  O25  1  0.308014  0.952541  0.075517  1
  O  O26  1  0.013604  0.244769  0.505087  1
  O  O27  1  0.120500  0.178243  0.204889  1
  O  O28  1  0.209935  0.530846  0.381692  1
  O  O29  1  0.319117  0.977135  0.600150  1
  O  O30  1  0.183291  0.552148  0.890055  1
  O  O31  1  0.102854  0.157732  0.681356  1
  O  O32  1  0.299798  0.442120  0.119091  1
  O  O33  1  0.417479  0.845274  0.304062  1
  O  O34  1  0.275664  0.422903  0.591901  1
  O  O35  1  0.188190  0.069390  0.416389  1
  O  O36  1  0.395032  0.868881  0.813544  1
  O  O37  1  0.518353  0.779016  0.009922  1
  O  O38  1  0.387936  0.348888  0.295132  1
  O  O39  1  0.503978  0.758725  0.482504  1
  O  O40  1  0.218669  0.045213  0.902794  1
  O  O41  1  0.596025  0.672239  0.217499  1
  O  O42  1  0.404804  0.326549  0.779367  1
  O  O43  1  0.780862  0.957816  0.099844  1
  O  O44  1  0.495129  0.246252  0.512070  1
  O  O45  1  0.616305  0.646858  0.711796  1
  O  O46  1  0.483700  0.218714  0.988184  1
  O  O47  1  0.604879  0.139072  0.187937  1
  O  O48  1  0.712072  0.565843  0.404874  1
  O  O49  1  0.800214  0.923290  0.580932  1
  O  O50  1  0.581586  0.150742  0.690079  1
  O  O51  1  0.890082  0.839214  0.318334  1
  O  O52  1  0.704890  0.560321  0.886455  1
  O  O53  1  0.824428  0.455397  0.108066  1
  O  O54  1  0.682553  0.023782  0.395953  1
  O  O55  1  0.881373  0.823740  0.797198  1
  O  O56  1  0.791966  0.468996  0.624468  1
  O  O57  1  0.979518  0.752870  0.495097  1
  O  O58  1  0.695213  0.042345  0.920562  1
  O  O59  1  0.911825  0.364881  0.283622  1
  O  O60  1  0.916642  0.378929  0.809978  1
