# generated using pymatgen
data_Mn2V3O12
_symmetry_space_group_name_H-M   'P 1'
_cell_length_a   8.73193188
_cell_length_b   12.27701046
_cell_length_c   9.01217085
_cell_angle_alpha   90.00000000
_cell_angle_beta   90.00000000
_cell_angle_gamma   90.65096699
_symmetry_Int_Tables_number   1
_chemical_formula_structural   Mn2V3O12
_chemical_formula_sum   'Mn8 V12 O48'
_cell_volume   966.06055537
_cell_formula_units_Z   4
loop_
 _symmetry_equiv_pos_site_id
 _symmetry_equiv_pos_as_xyz
  1  'x, y, z'
loop_
 _atom_site_type_symbol
 _atom_site_label
 _atom_site_symmetry_multiplicity
 _atom_site_fract_x
 _atom_site_fract_y
 _atom_site_fract_z
 _atom_site_occupancy
  Mn  Mn0  1  0.251731  0.883765  0.025701  1
  Mn  Mn1  1  0.248269  0.616235  0.525701  1
  Mn  Mn2  1  0.252550  0.380916  0.971387  1
  Mn  Mn3  1  0.247450  0.119084  0.471387  1
  Mn  Mn4  1  0.752550  0.880916  0.528613  1
  Mn  Mn5  1  0.747450  0.619084  0.028613  1
  Mn  Mn6  1  0.751731  0.383765  0.474299  1
  Mn  Mn7  1  0.748269  0.116235  0.974299  1
  V  V8  1  0.032735  0.490151  0.248617  1
  V  V9  1  0.107794  0.852439  0.381907  1
  V  V10  1  0.112115  0.141645  0.112077  1
  V  V11  1  0.392206  0.647561  0.881907  1
  V  V12  1  0.387885  0.358355  0.612077  1
  V  V13  1  0.467265  0.009849  0.748617  1
  V  V14  1  0.532735  0.990151  0.251383  1
  V  V15  1  0.612115  0.641645  0.387923  1
  V  V16  1  0.607794  0.352439  0.118093  1
  V  V17  1  0.887885  0.858355  0.887923  1
  V  V18  1  0.892206  0.147561  0.618093  1
  V  V19  1  0.967265  0.509849  0.751383  1
  O  O20  1  0.079980  0.443033  0.875760  1
  O  O21  1  0.081365  0.898977  0.892263  1
  O  O22  1  0.075289  0.613022  0.659186  1
  O  O23  1  0.079066  0.182396  0.570137  1
  O  O24  1  0.102731  0.587980  0.372444  1
  O  O25  1  0.124804  0.844720  0.188080  1
  O  O26  1  0.143892  0.984804  0.435121  1
  O  O27  1  0.137749  0.251050  0.994497  1
  O  O28  1  0.167737  0.175149  0.290563  1
  O  O29  1  0.184710  0.429924  0.159182  1
  O  O30  1  0.235769  0.766904  0.473637  1
  O  O31  1  0.264231  0.733096  0.973637  1
  O  O32  1  0.231770  0.035992  0.057847  1
  O  O33  1  0.268230  0.464008  0.557847  1
  O  O34  1  0.315290  0.070076  0.659182  1
  O  O35  1  0.332263  0.324851  0.790563  1
  O  O36  1  0.356108  0.515196  0.935121  1
  O  O37  1  0.362251  0.248950  0.494497  1
  O  O38  1  0.375196  0.655280  0.688080  1
  O  O39  1  0.397269  0.912020  0.872444  1
  O  O40  1  0.424711  0.886978  0.159186  1
  O  O41  1  0.418635  0.601023  0.392263  1
  O  O42  1  0.420934  0.317604  0.070137  1
  O  O43  1  0.420020  0.056967  0.375760  1
  O  O44  1  0.579980  0.943033  0.624240  1
  O  O45  1  0.579066  0.682396  0.929863  1
  O  O46  1  0.581365  0.398977  0.607737  1
  O  O47  1  0.575289  0.113022  0.840814  1
  O  O48  1  0.602731  0.087980  0.127556  1
  O  O49  1  0.624804  0.344720  0.311920  1
  O  O50  1  0.637749  0.751050  0.505503  1
  O  O51  1  0.643892  0.484804  0.064879  1
  O  O52  1  0.667737  0.675149  0.209437  1
  O  O53  1  0.684710  0.929924  0.340818  1
  O  O54  1  0.731770  0.535992  0.442153  1
  O  O55  1  0.768230  0.964008  0.942153  1
  O  O56  1  0.735769  0.266904  0.026363  1
  O  O57  1  0.764231  0.233096  0.526363  1
  O  O58  1  0.815290  0.570076  0.840818  1
  O  O59  1  0.832263  0.824851  0.709437  1
  O  O60  1  0.862251  0.748950  0.005503  1
  O  O61  1  0.856108  0.015196  0.564879  1
  O  O62  1  0.875196  0.155280  0.811920  1
  O  O63  1  0.897269  0.412020  0.627556  1
  O  O64  1  0.920934  0.817604  0.429863  1
  O  O65  1  0.924711  0.386978  0.340814  1
  O  O66  1  0.918635  0.101023  0.107737  1
  O  O67  1  0.920020  0.556967  0.124240  1
