# generated using pymatgen
data_Li3V4(OF3)3
_symmetry_space_group_name_H-M   'P 1'
_cell_length_a   5.18967937
_cell_length_b   5.54213388
_cell_length_c   17.28372039
_cell_angle_alpha   91.02316736
_cell_angle_beta   97.46133680
_cell_angle_gamma   62.51346661
_symmetry_Int_Tables_number   1
_chemical_formula_structural   Li3V4(OF3)3
_chemical_formula_sum   'Li6 V8 O6 F18'
_cell_volume   436.76354840
_cell_formula_units_Z   2
loop_
 _symmetry_equiv_pos_site_id
 _symmetry_equiv_pos_as_xyz
  1  'x, y, z'
loop_
 _atom_site_type_symbol
 _atom_site_label
 _atom_site_symmetry_multiplicity
 _atom_site_fract_x
 _atom_site_fract_y
 _atom_site_fract_z
 _atom_site_occupancy
  Li  Li0  1  0.064729  0.552171  0.683229  1
  Li  Li1  1  0.364090  0.325097  0.058849  1
  Li  Li2  1  0.672483  0.102313  0.451676  1
  Li  Li3  1  0.196029  0.828472  0.200824  1
  Li  Li4  1  0.312773  0.918622  0.550039  1
  Li  Li5  1  0.566671  0.826161  0.927675  1
  V  V6  1  0.020938  0.018018  0.997063  1
  V  V7  1  0.252094  0.379138  0.871793  1
  V  V8  1  0.466215  0.249277  0.249415  1
  V  V9  1  0.496089  0.726026  0.752774  1
  V  V10  1  0.241599  0.894908  0.367929  1
  V  V11  1  0.751534  0.117013  0.619265  1
  V  V12  1  0.963821  0.515127  0.505077  1
  V  V13  1  0.785819  0.609194  0.129614  1
  O  O14  1  0.211218  0.204703  0.966683  1
  O  O15  1  0.298218  0.039178  0.279769  1
  O  O16  1  0.312493  0.534505  0.783543  1
  O  O17  1  0.190634  0.419048  0.153349  1
  O  O18  1  0.828335  0.271718  0.532786  1
  O  O19  1  0.725001  0.835992  0.558111  1
  F  F20  1  0.272816  0.051660  0.812533  1
  F  F21  1  0.257115  0.192365  0.441890  1
  F  F22  1  0.280592  0.680412  0.943696  1
  F  F23  1  0.296421  0.351229  0.600881  1
  F  F24  1  0.168208  0.738785  0.467611  1
  F  F25  1  0.199698  0.870494  0.651367  1
  F  F26  1  0.688306  0.132245  0.907000  1
  F  F27  1  0.225800  0.588037  0.306965  1
  F  F28  1  0.773397  0.420865  0.691674  1
  F  F29  1  0.329574  0.846694  0.096732  1
  F  F30  1  0.791037  0.108564  0.346877  1
  F  F31  1  0.808696  0.599511  0.851850  1
  F  F32  1  0.655483  0.484258  0.217427  1
  F  F33  1  0.668292  0.678047  0.407240  1
  F  F34  1  0.707089  0.926702  0.714484  1
  F  F35  1  0.744920  0.313220  0.062132  1
  F  F36  1  0.761950  0.940732  0.184104  1
  F  F37  1  0.828025  0.782008  0.028522  1
