# generated using pymatgen
data_Li(CrS2)2
_symmetry_space_group_name_H-M   'P 1'
_cell_length_a   7.01047784
_cell_length_b   7.01047760
_cell_length_c   7.09659191
_cell_angle_alpha   119.59939777
_cell_angle_beta   119.59939558
_cell_angle_gamma   90.00000408
_symmetry_Int_Tables_number   1
_chemical_formula_structural   Li(CrS2)2
_chemical_formula_sum   'Li2 Cr4 S8'
_cell_volume   249.57775531
_cell_formula_units_Z   2
loop_
 _symmetry_equiv_pos_site_id
 _symmetry_equiv_pos_as_xyz
  1  'x, y, z'
loop_
 _atom_site_type_symbol
 _atom_site_label
 _atom_site_symmetry_multiplicity
 _atom_site_fract_x
 _atom_site_fract_y
 _atom_site_fract_z
 _atom_site_occupancy
  Li  Li0  1  0.375001  0.625001  0.750000  1
  Li  Li1  1  0.624999  0.375000  0.250000  1
  Cr  Cr2  1  -0.000000  0.500001  0.000001  1
  Cr  Cr3  1  0.000001  -0.000000  0.500000  1
  Cr  Cr4  1  0.500001  -0.000000  0.500000  1
  Cr  Cr5  1  -0.000000  -0.000000  -0.000000  1
  S  S6  1  0.764508  0.781806  0.529019  1
  S  S7  1  0.752788  0.235493  0.970983  1
  S  S8  1  0.218195  0.235493  0.970982  1
  S  S9  1  0.235492  0.218194  0.470982  1
  S  S10  1  0.235491  0.752787  0.470981  1
  S  S11  1  0.247212  0.764508  0.029019  1
  S  S12  1  0.764508  0.247212  0.529018  1
  S  S13  1  0.781805  0.764508  0.029018  1
