# generated using pymatgen
data_CrO2
_symmetry_space_group_name_H-M   'P 1'
_cell_length_a   5.22344966
_cell_length_b   5.75864432
_cell_length_c   10.91421282
_cell_angle_alpha   89.98177897
_cell_angle_beta   90.03381345
_cell_angle_gamma   89.69164058
_symmetry_Int_Tables_number   1
_chemical_formula_structural   CrO2
_chemical_formula_sum   'Cr8 O16'
_cell_volume   328.29456948
_cell_formula_units_Z   8
loop_
 _symmetry_equiv_pos_site_id
 _symmetry_equiv_pos_as_xyz
  1  'x, y, z'
loop_
 _atom_site_type_symbol
 _atom_site_label
 _atom_site_symmetry_multiplicity
 _atom_site_fract_x
 _atom_site_fract_y
 _atom_site_fract_z
 _atom_site_occupancy
  Cr  Cr0  1  0.492262  0.750164  0.490874  1
  Cr  Cr1  1  0.492193  0.750288  0.009206  1
  Cr  Cr2  1  0.507800  0.249815  0.509083  1
  Cr  Cr3  1  0.507746  0.249742  0.990804  1
  Cr  Cr4  1  -0.000009  0.500005  0.500024  1
  Cr  Cr5  1  -0.000003  0.000096  0.999979  1
  Cr  Cr6  1  0.000027  -0.000079  0.500013  1
  Cr  Cr7  1  -0.000009  0.500000  0.000017  1
  O  O8  1  0.836769  0.747979  0.410410  1
  O  O9  1  0.837082  0.747892  0.089589  1
  O  O10  1  0.163204  0.251984  0.589540  1
  O  O11  1  0.162986  0.252131  0.910350  1
  O  O12  1  0.165780  0.752362  0.586019  1
  O  O13  1  0.165435  0.752631  0.914103  1
  O  O14  1  0.834380  0.247583  0.414075  1
  O  O15  1  0.834448  0.247416  0.085981  1
  O  O16  1  0.664583  0.501920  0.588087  1
  O  O17  1  0.663481  0.995469  0.911432  1
  O  O18  1  0.336285  0.004356  0.411486  1
  O  O19  1  0.335642  0.498088  0.088070  1
  O  O20  1  0.335399  0.498102  0.411891  1
  O  O21  1  0.336489  0.004629  0.088564  1
  O  O22  1  0.663699  0.995540  0.588473  1
  O  O23  1  0.664326  0.501886  0.911936  1
