# generated using pymatgen
data_SbS2
_symmetry_space_group_name_H-M   'P 1'
_cell_length_a   6.06143137
_cell_length_b   6.06142970
_cell_length_c   7.20989718
_cell_angle_alpha   114.85701622
_cell_angle_beta   114.85699719
_cell_angle_gamma   89.99998587
_symmetry_Int_Tables_number   1
_chemical_formula_structural   SbS2
_chemical_formula_sum   'Sb2 S4'
_cell_volume   213.00916948
_cell_formula_units_Z   2
loop_
 _symmetry_equiv_pos_site_id
 _symmetry_equiv_pos_as_xyz
  1  'x, y, z'
loop_
 _atom_site_type_symbol
 _atom_site_label
 _atom_site_symmetry_multiplicity
 _atom_site_fract_x
 _atom_site_fract_y
 _atom_site_fract_z
 _atom_site_occupancy
  Sb  Sb0  1  0.250000  0.750000  0.500000  1
  Sb  Sb1  1  -0.000000  -0.000000  -0.000000  1
  S  S2  1  0.899029  0.875000  0.250000  1
  S  S3  1  0.625000  0.100971  0.750000  1
  S  S4  1  0.350971  0.375000  0.250000  1
  S  S5  1  0.125000  0.649029  0.750000  1
