# generated using pymatgen
data_Li(NiS2)2
_symmetry_space_group_name_H-M   'P 1'
_cell_length_a   6.80094133
_cell_length_b   6.80094095
_cell_length_c   6.86046478
_cell_angle_alpha   119.71340535
_cell_angle_beta   119.71340981
_cell_angle_gamma   89.99999668
_symmetry_Int_Tables_number   1
_chemical_formula_structural   Li(NiS2)2
_chemical_formula_sum   'Li2 Ni4 S8'
_cell_volume   226.30607239
_cell_formula_units_Z   2
loop_
 _symmetry_equiv_pos_site_id
 _symmetry_equiv_pos_as_xyz
  1  'x, y, z'
loop_
 _atom_site_type_symbol
 _atom_site_label
 _atom_site_symmetry_multiplicity
 _atom_site_fract_x
 _atom_site_fract_y
 _atom_site_fract_z
 _atom_site_occupancy
  Li  Li0  1  0.375001  0.625001  0.750000  1
  Li  Li1  1  0.624999  0.375000  0.250000  1
  Ni  Ni2  1  -0.000000  0.500001  0.000001  1
  Ni  Ni3  1  0.000001  -0.000000  0.500000  1
  Ni  Ni4  1  0.500001  -0.000000  0.500000  1
  Ni  Ni5  1  -0.000000  -0.000000  -0.000000  1
  S  S6  1  0.767577  0.794133  0.535153  1
  S  S7  1  0.758981  0.232424  0.964849  1
  S  S8  1  0.205868  0.232424  0.964848  1
  S  S9  1  0.232423  0.205867  0.464848  1
  S  S10  1  0.232422  0.758980  0.464847  1
  S  S11  1  0.241019  0.767577  0.035153  1
  S  S12  1  0.767577  0.241019  0.535152  1
  S  S13  1  0.794132  0.767577  0.035152  1
